*SPEF "ieee 1481-1999"
*DESIGN "tt_ihp_wrapper"
*DATE "21:07:35 Sunday December 07, 2025"
*VENDOR "The OpenROAD Project"
*PROGRAM "OpenROAD"
*VERSION "341650e72dad0dc8571822ff8c5d9c5e365327f7"
*DESIGN_FLOW "NAME_SCOPE LOCAL" "PIN_CAP NONE"
*DIVIDER /
*DELIMITER :
*BUS_DELIMITER []
*T_UNIT 1 NS
*C_UNIT 1 PF
*R_UNIT 1 OHM
*L_UNIT 1 HENRY

*NAME_MAP
*3 pad_raw[0]
*4 pad_raw[10]
*5 pad_raw[11]
*6 pad_raw[12]
*7 pad_raw[13]
*8 pad_raw[14]
*9 pad_raw[15]
*10 pad_raw[1]
*11 pad_raw[2]
*12 pad_raw[32]
*13 pad_raw[33]
*14 pad_raw[34]
*15 pad_raw[35]
*16 pad_raw[36]
*17 pad_raw[37]
*18 pad_raw[38]
*19 pad_raw[39]
*20 pad_raw[3]
*21 pad_raw[40]
*22 pad_raw[41]
*23 pad_raw[42]
*24 pad_raw[43]
*25 pad_raw[44]
*26 pad_raw[45]
*27 pad_raw[46]
*28 pad_raw[47]
*29 pad_raw[48]
*30 pad_raw[49]
*31 pad_raw[4]
*32 pad_raw[5]
*33 pad_raw[8]
*34 pad_raw[9]
*48 gpio\[0\]\.gpio_I\.pad_ana
*49 gpio\[0\]\.gpio_I\.pad_in
*50 gpio\[0\]\.gpio_I\.pad_oe
*51 gpio\[10\]\.gpio_I\.pad_ana
*52 gpio\[10\]\.gpio_I\.pad_in
*53 gpio\[10\]\.gpio_I\.pad_out
*54 gpio\[11\]\.gpio_I\.pad_ana
*55 gpio\[11\]\.gpio_I\.pad_in
*56 gpio\[11\]\.gpio_I\.pad_out
*57 gpio\[12\]\.gpio_I\.pad_ana
*58 gpio\[12\]\.gpio_I\.pad_in
*59 gpio\[12\]\.gpio_I\.pad_out
*60 gpio\[13\]\.gpio_I\.pad_ana
*61 gpio\[13\]\.gpio_I\.pad_in
*62 gpio\[13\]\.gpio_I\.pad_out
*63 gpio\[14\]\.gpio_I\.pad_ana
*64 gpio\[14\]\.gpio_I\.pad_in
*65 gpio\[14\]\.gpio_I\.pad_out
*66 gpio\[15\]\.gpio_I\.pad_ana
*67 gpio\[15\]\.gpio_I\.pad_in
*68 gpio\[15\]\.gpio_I\.pad_out
*69 gpio\[18\]\.gpio_I\.pad_ana
*70 gpio\[18\]\.gpio_I\.pad_in
*71 gpio\[18\]\.gpio_I\.pad_oe
*72 gpio\[19\]\.gpio_I\.pad_ana
*73 gpio\[19\]\.gpio_I\.pad_in
*74 gpio\[1\]\.gpio_I\.pad_ana
*75 gpio\[1\]\.gpio_I\.pad_in
*76 gpio\[20\]\.gpio_I\.pad_ana
*77 gpio\[20\]\.gpio_I\.pad_in
*78 gpio\[21\]\.gpio_I\.pad_ana
*79 gpio\[21\]\.gpio_I\.pad_in
*80 gpio\[24\]\.gpio_I\.pad_ana
*81 gpio\[24\]\.gpio_I\.pad_in
*82 gpio\[25\]\.gpio_I\.pad_ana
*83 gpio\[25\]\.gpio_I\.pad_in
*84 gpio\[26\]\.gpio_I\.pad_ana
*85 gpio\[26\]\.gpio_I\.pad_in
*86 gpio\[27\]\.gpio_I\.pad_ana
*87 gpio\[27\]\.gpio_I\.pad_in
*88 gpio\[2\]\.gpio_I\.pad_ana
*89 gpio\[2\]\.gpio_I\.pad_in
*90 gpio\[32\]\.gpio_I\.pad_ana
*91 gpio\[32\]\.gpio_I\.pad_in
*92 gpio\[32\]\.gpio_I\.pad_oe
*93 gpio\[32\]\.gpio_I\.pad_out
*94 gpio\[33\]\.gpio_I\.pad_ana
*95 gpio\[33\]\.gpio_I\.pad_in
*96 gpio\[33\]\.gpio_I\.pad_oe
*97 gpio\[33\]\.gpio_I\.pad_out
*98 gpio\[34\]\.gpio_I\.pad_ana
*99 gpio\[34\]\.gpio_I\.pad_in
*100 gpio\[34\]\.gpio_I\.pad_oe
*101 gpio\[34\]\.gpio_I\.pad_out
*102 gpio\[35\]\.gpio_I\.pad_ana
*103 gpio\[35\]\.gpio_I\.pad_in
*104 gpio\[35\]\.gpio_I\.pad_oe
*105 gpio\[35\]\.gpio_I\.pad_out
*106 gpio\[36\]\.gpio_I\.pad_ana
*107 gpio\[36\]\.gpio_I\.pad_in
*108 gpio\[36\]\.gpio_I\.pad_oe
*109 gpio\[36\]\.gpio_I\.pad_out
*110 gpio\[37\]\.gpio_I\.pad_ana
*111 gpio\[37\]\.gpio_I\.pad_in
*112 gpio\[37\]\.gpio_I\.pad_oe
*113 gpio\[37\]\.gpio_I\.pad_out
*114 gpio\[38\]\.gpio_I\.pad_ana
*115 gpio\[38\]\.gpio_I\.pad_in
*116 gpio\[38\]\.gpio_I\.pad_oe
*117 gpio\[38\]\.gpio_I\.pad_out
*118 gpio\[39\]\.gpio_I\.pad_ana
*119 gpio\[39\]\.gpio_I\.pad_in
*120 gpio\[39\]\.gpio_I\.pad_oe
*121 gpio\[39\]\.gpio_I\.pad_out
*122 gpio\[3\]\.gpio_I\.pad_ana
*123 gpio\[3\]\.gpio_I\.pad_in
*124 gpio\[40\]\.gpio_I\.pad_ana
*125 gpio\[40\]\.gpio_I\.pad_in
*126 gpio\[41\]\.gpio_I\.pad_ana
*127 gpio\[41\]\.gpio_I\.pad_in
*128 gpio\[42\]\.gpio_I\.pad_ana
*129 gpio\[42\]\.gpio_I\.pad_in
*130 gpio\[43\]\.gpio_I\.pad_ana
*131 gpio\[43\]\.gpio_I\.pad_in
*132 gpio\[44\]\.gpio_I\.pad_ana
*133 gpio\[44\]\.gpio_I\.pad_in
*134 gpio\[45\]\.gpio_I\.pad_ana
*135 gpio\[45\]\.gpio_I\.pad_in
*136 gpio\[46\]\.gpio_I\.pad_ana
*137 gpio\[46\]\.gpio_I\.pad_in
*138 gpio\[47\]\.gpio_I\.pad_ana
*139 gpio\[47\]\.gpio_I\.pad_in
*140 gpio\[48\]\.gpio_I\.pad_ana
*141 gpio\[48\]\.gpio_I\.pad_in
*142 gpio\[49\]\.gpio_I\.pad_ana
*143 gpio\[49\]\.gpio_I\.pad_in
*144 gpio\[4\]\.gpio_I\.pad_ana
*145 gpio\[4\]\.gpio_I\.pad_in
*146 gpio\[52\]\.gpio_I\.pad_ana
*147 gpio\[52\]\.gpio_I\.pad_in
*148 gpio\[53\]\.gpio_I\.pad_ana
*149 gpio\[53\]\.gpio_I\.pad_in
*150 gpio\[54\]\.gpio_I\.pad_ana
*151 gpio\[54\]\.gpio_I\.pad_in
*152 gpio\[55\]\.gpio_I\.pad_ana
*153 gpio\[55\]\.gpio_I\.pad_in
*154 gpio\[58\]\.gpio_I\.pad_ana
*155 gpio\[58\]\.gpio_I\.pad_in
*156 gpio\[59\]\.gpio_I\.pad_ana
*157 gpio\[59\]\.gpio_I\.pad_in
*158 gpio\[5\]\.gpio_I\.pad_ana
*159 gpio\[5\]\.gpio_I\.pad_in
*160 gpio\[60\]\.gpio_I\.pad_ana
*161 gpio\[60\]\.gpio_I\.pad_in
*162 gpio\[61\]\.gpio_I\.pad_ana
*163 gpio\[61\]\.gpio_I\.pad_in
*164 gpio\[8\]\.gpio_I\.pad_ana
*165 gpio\[8\]\.gpio_I\.pad_in
*166 gpio\[8\]\.gpio_I\.pad_out
*167 gpio\[9\]\.gpio_I\.pad_ana
*168 gpio\[9\]\.gpio_I\.pad_in
*169 gpio\[9\]\.gpio_I\.pad_out
*170 pad_raw[16]
*171 pad_raw[17]
*172 pad_raw[18]
*173 pad_raw[19]
*174 pad_raw[20]
*175 pad_raw[21]
*176 pad_raw[22]
*177 pad_raw[23]
*178 pad_raw[24]
*179 pad_raw[25]
*180 pad_raw[26]
*181 pad_raw[27]
*182 pad_raw[28]
*183 pad_raw[29]
*184 pad_raw[30]
*185 pad_raw[31]
*186 pad_raw[50]
*187 pad_raw[51]
*188 pad_raw[52]
*189 pad_raw[53]
*190 pad_raw[54]
*191 pad_raw[55]
*192 pad_raw[56]
*193 pad_raw[57]
*194 pad_raw[58]
*195 pad_raw[59]
*196 pad_raw[60]
*197 pad_raw[61]
*198 pad_raw[62]
*199 pad_raw[63]
*200 pad_raw[6]
*201 pad_raw[7]
*202 top_I\.branch\[0\]\.check_mask\.block\[0\]\.um_I\.clk
*203 top_I\.branch\[0\]\.check_mask\.block\[0\]\.um_I\.ena
*204 top_I\.branch\[0\]\.check_mask\.block\[0\]\.um_I\.iw\[10\]
*205 top_I\.branch\[0\]\.check_mask\.block\[0\]\.um_I\.iw\[11\]
*206 top_I\.branch\[0\]\.check_mask\.block\[0\]\.um_I\.iw\[12\]
*207 top_I\.branch\[0\]\.check_mask\.block\[0\]\.um_I\.iw\[13\]
*208 top_I\.branch\[0\]\.check_mask\.block\[0\]\.um_I\.iw\[14\]
*209 top_I\.branch\[0\]\.check_mask\.block\[0\]\.um_I\.iw\[15\]
*210 top_I\.branch\[0\]\.check_mask\.block\[0\]\.um_I\.iw\[16\]
*211 top_I\.branch\[0\]\.check_mask\.block\[0\]\.um_I\.iw\[17\]
*212 top_I\.branch\[0\]\.check_mask\.block\[0\]\.um_I\.iw\[1\]
*213 top_I\.branch\[0\]\.check_mask\.block\[0\]\.um_I\.iw\[2\]
*214 top_I\.branch\[0\]\.check_mask\.block\[0\]\.um_I\.iw\[3\]
*215 top_I\.branch\[0\]\.check_mask\.block\[0\]\.um_I\.iw\[4\]
*216 top_I\.branch\[0\]\.check_mask\.block\[0\]\.um_I\.iw\[5\]
*217 top_I\.branch\[0\]\.check_mask\.block\[0\]\.um_I\.iw\[6\]
*218 top_I\.branch\[0\]\.check_mask\.block\[0\]\.um_I\.iw\[7\]
*219 top_I\.branch\[0\]\.check_mask\.block\[0\]\.um_I\.iw\[8\]
*220 top_I\.branch\[0\]\.check_mask\.block\[0\]\.um_I\.iw\[9\]
*221 top_I\.branch\[0\]\.check_mask\.block\[0\]\.um_I\.k_zero
*222 top_I\.branch\[0\]\.check_mask\.block\[0\]\.um_I\.ow\[0\]
*223 top_I\.branch\[0\]\.check_mask\.block\[0\]\.um_I\.ow\[10\]
*224 top_I\.branch\[0\]\.check_mask\.block\[0\]\.um_I\.ow\[11\]
*225 top_I\.branch\[0\]\.check_mask\.block\[0\]\.um_I\.ow\[12\]
*226 top_I\.branch\[0\]\.check_mask\.block\[0\]\.um_I\.ow\[13\]
*227 top_I\.branch\[0\]\.check_mask\.block\[0\]\.um_I\.ow\[14\]
*228 top_I\.branch\[0\]\.check_mask\.block\[0\]\.um_I\.ow\[15\]
*229 top_I\.branch\[0\]\.check_mask\.block\[0\]\.um_I\.ow\[16\]
*230 top_I\.branch\[0\]\.check_mask\.block\[0\]\.um_I\.ow\[17\]
*231 top_I\.branch\[0\]\.check_mask\.block\[0\]\.um_I\.ow\[18\]
*232 top_I\.branch\[0\]\.check_mask\.block\[0\]\.um_I\.ow\[19\]
*233 top_I\.branch\[0\]\.check_mask\.block\[0\]\.um_I\.ow\[1\]
*234 top_I\.branch\[0\]\.check_mask\.block\[0\]\.um_I\.ow\[20\]
*235 top_I\.branch\[0\]\.check_mask\.block\[0\]\.um_I\.ow\[21\]
*236 top_I\.branch\[0\]\.check_mask\.block\[0\]\.um_I\.ow\[22\]
*237 top_I\.branch\[0\]\.check_mask\.block\[0\]\.um_I\.ow\[23\]
*238 top_I\.branch\[0\]\.check_mask\.block\[0\]\.um_I\.ow\[2\]
*239 top_I\.branch\[0\]\.check_mask\.block\[0\]\.um_I\.ow\[3\]
*240 top_I\.branch\[0\]\.check_mask\.block\[0\]\.um_I\.ow\[4\]
*241 top_I\.branch\[0\]\.check_mask\.block\[0\]\.um_I\.ow\[5\]
*242 top_I\.branch\[0\]\.check_mask\.block\[0\]\.um_I\.ow\[6\]
*243 top_I\.branch\[0\]\.check_mask\.block\[0\]\.um_I\.ow\[7\]
*244 top_I\.branch\[0\]\.check_mask\.block\[0\]\.um_I\.ow\[8\]
*245 top_I\.branch\[0\]\.check_mask\.block\[0\]\.um_I\.ow\[9\]
*246 top_I\.branch\[0\]\.check_mask\.block\[0\]\.um_I\.pg_ena
*247 top_I\.branch\[0\]\.check_mask\.block\[10\]\.um_I\.clk
*248 top_I\.branch\[0\]\.check_mask\.block\[10\]\.um_I\.ena
*249 top_I\.branch\[0\]\.check_mask\.block\[10\]\.um_I\.iw\[10\]
*250 top_I\.branch\[0\]\.check_mask\.block\[10\]\.um_I\.iw\[11\]
*251 top_I\.branch\[0\]\.check_mask\.block\[10\]\.um_I\.iw\[12\]
*252 top_I\.branch\[0\]\.check_mask\.block\[10\]\.um_I\.iw\[13\]
*253 top_I\.branch\[0\]\.check_mask\.block\[10\]\.um_I\.iw\[14\]
*254 top_I\.branch\[0\]\.check_mask\.block\[10\]\.um_I\.iw\[15\]
*255 top_I\.branch\[0\]\.check_mask\.block\[10\]\.um_I\.iw\[16\]
*256 top_I\.branch\[0\]\.check_mask\.block\[10\]\.um_I\.iw\[17\]
*257 top_I\.branch\[0\]\.check_mask\.block\[10\]\.um_I\.iw\[1\]
*258 top_I\.branch\[0\]\.check_mask\.block\[10\]\.um_I\.iw\[2\]
*259 top_I\.branch\[0\]\.check_mask\.block\[10\]\.um_I\.iw\[3\]
*260 top_I\.branch\[0\]\.check_mask\.block\[10\]\.um_I\.iw\[4\]
*261 top_I\.branch\[0\]\.check_mask\.block\[10\]\.um_I\.iw\[5\]
*262 top_I\.branch\[0\]\.check_mask\.block\[10\]\.um_I\.iw\[6\]
*263 top_I\.branch\[0\]\.check_mask\.block\[10\]\.um_I\.iw\[7\]
*264 top_I\.branch\[0\]\.check_mask\.block\[10\]\.um_I\.iw\[8\]
*265 top_I\.branch\[0\]\.check_mask\.block\[10\]\.um_I\.iw\[9\]
*266 top_I\.branch\[0\]\.check_mask\.block\[10\]\.um_I\.k_zero
*267 top_I\.branch\[0\]\.check_mask\.block\[10\]\.um_I\.pg_ena
*268 top_I\.branch\[0\]\.check_mask\.block\[11\]\.um_I\.clk
*269 top_I\.branch\[0\]\.check_mask\.block\[11\]\.um_I\.ena
*270 top_I\.branch\[0\]\.check_mask\.block\[11\]\.um_I\.iw\[10\]
*271 top_I\.branch\[0\]\.check_mask\.block\[11\]\.um_I\.iw\[11\]
*272 top_I\.branch\[0\]\.check_mask\.block\[11\]\.um_I\.iw\[12\]
*273 top_I\.branch\[0\]\.check_mask\.block\[11\]\.um_I\.iw\[13\]
*274 top_I\.branch\[0\]\.check_mask\.block\[11\]\.um_I\.iw\[14\]
*275 top_I\.branch\[0\]\.check_mask\.block\[11\]\.um_I\.iw\[15\]
*276 top_I\.branch\[0\]\.check_mask\.block\[11\]\.um_I\.iw\[16\]
*277 top_I\.branch\[0\]\.check_mask\.block\[11\]\.um_I\.iw\[17\]
*278 top_I\.branch\[0\]\.check_mask\.block\[11\]\.um_I\.iw\[1\]
*279 top_I\.branch\[0\]\.check_mask\.block\[11\]\.um_I\.iw\[2\]
*280 top_I\.branch\[0\]\.check_mask\.block\[11\]\.um_I\.iw\[3\]
*281 top_I\.branch\[0\]\.check_mask\.block\[11\]\.um_I\.iw\[4\]
*282 top_I\.branch\[0\]\.check_mask\.block\[11\]\.um_I\.iw\[5\]
*283 top_I\.branch\[0\]\.check_mask\.block\[11\]\.um_I\.iw\[6\]
*284 top_I\.branch\[0\]\.check_mask\.block\[11\]\.um_I\.iw\[7\]
*285 top_I\.branch\[0\]\.check_mask\.block\[11\]\.um_I\.iw\[8\]
*286 top_I\.branch\[0\]\.check_mask\.block\[11\]\.um_I\.iw\[9\]
*287 top_I\.branch\[0\]\.check_mask\.block\[11\]\.um_I\.k_zero
*288 top_I\.branch\[0\]\.check_mask\.block\[11\]\.um_I\.pg_ena
*289 top_I\.branch\[0\]\.check_mask\.block\[1\]\.um_I\.clk
*290 top_I\.branch\[0\]\.check_mask\.block\[1\]\.um_I\.ena
*291 top_I\.branch\[0\]\.check_mask\.block\[1\]\.um_I\.iw\[10\]
*292 top_I\.branch\[0\]\.check_mask\.block\[1\]\.um_I\.iw\[11\]
*293 top_I\.branch\[0\]\.check_mask\.block\[1\]\.um_I\.iw\[12\]
*294 top_I\.branch\[0\]\.check_mask\.block\[1\]\.um_I\.iw\[13\]
*295 top_I\.branch\[0\]\.check_mask\.block\[1\]\.um_I\.iw\[14\]
*296 top_I\.branch\[0\]\.check_mask\.block\[1\]\.um_I\.iw\[15\]
*297 top_I\.branch\[0\]\.check_mask\.block\[1\]\.um_I\.iw\[16\]
*298 top_I\.branch\[0\]\.check_mask\.block\[1\]\.um_I\.iw\[17\]
*299 top_I\.branch\[0\]\.check_mask\.block\[1\]\.um_I\.iw\[1\]
*300 top_I\.branch\[0\]\.check_mask\.block\[1\]\.um_I\.iw\[2\]
*301 top_I\.branch\[0\]\.check_mask\.block\[1\]\.um_I\.iw\[3\]
*302 top_I\.branch\[0\]\.check_mask\.block\[1\]\.um_I\.iw\[4\]
*303 top_I\.branch\[0\]\.check_mask\.block\[1\]\.um_I\.iw\[5\]
*304 top_I\.branch\[0\]\.check_mask\.block\[1\]\.um_I\.iw\[6\]
*305 top_I\.branch\[0\]\.check_mask\.block\[1\]\.um_I\.iw\[7\]
*306 top_I\.branch\[0\]\.check_mask\.block\[1\]\.um_I\.iw\[8\]
*307 top_I\.branch\[0\]\.check_mask\.block\[1\]\.um_I\.iw\[9\]
*308 top_I\.branch\[0\]\.check_mask\.block\[1\]\.um_I\.k_zero
*309 top_I\.branch\[0\]\.check_mask\.block\[1\]\.um_I\.ow\[0\]
*310 top_I\.branch\[0\]\.check_mask\.block\[1\]\.um_I\.ow\[10\]
*311 top_I\.branch\[0\]\.check_mask\.block\[1\]\.um_I\.ow\[11\]
*312 top_I\.branch\[0\]\.check_mask\.block\[1\]\.um_I\.ow\[12\]
*313 top_I\.branch\[0\]\.check_mask\.block\[1\]\.um_I\.ow\[13\]
*314 top_I\.branch\[0\]\.check_mask\.block\[1\]\.um_I\.ow\[14\]
*315 top_I\.branch\[0\]\.check_mask\.block\[1\]\.um_I\.ow\[15\]
*316 top_I\.branch\[0\]\.check_mask\.block\[1\]\.um_I\.ow\[16\]
*317 top_I\.branch\[0\]\.check_mask\.block\[1\]\.um_I\.ow\[17\]
*318 top_I\.branch\[0\]\.check_mask\.block\[1\]\.um_I\.ow\[18\]
*319 top_I\.branch\[0\]\.check_mask\.block\[1\]\.um_I\.ow\[19\]
*320 top_I\.branch\[0\]\.check_mask\.block\[1\]\.um_I\.ow\[1\]
*321 top_I\.branch\[0\]\.check_mask\.block\[1\]\.um_I\.ow\[20\]
*322 top_I\.branch\[0\]\.check_mask\.block\[1\]\.um_I\.ow\[21\]
*323 top_I\.branch\[0\]\.check_mask\.block\[1\]\.um_I\.ow\[22\]
*324 top_I\.branch\[0\]\.check_mask\.block\[1\]\.um_I\.ow\[23\]
*325 top_I\.branch\[0\]\.check_mask\.block\[1\]\.um_I\.ow\[2\]
*326 top_I\.branch\[0\]\.check_mask\.block\[1\]\.um_I\.ow\[3\]
*327 top_I\.branch\[0\]\.check_mask\.block\[1\]\.um_I\.ow\[4\]
*328 top_I\.branch\[0\]\.check_mask\.block\[1\]\.um_I\.ow\[5\]
*329 top_I\.branch\[0\]\.check_mask\.block\[1\]\.um_I\.ow\[6\]
*330 top_I\.branch\[0\]\.check_mask\.block\[1\]\.um_I\.ow\[7\]
*331 top_I\.branch\[0\]\.check_mask\.block\[1\]\.um_I\.ow\[8\]
*332 top_I\.branch\[0\]\.check_mask\.block\[1\]\.um_I\.ow\[9\]
*333 top_I\.branch\[0\]\.check_mask\.block\[1\]\.um_I\.pg_ena
*334 top_I\.branch\[0\]\.check_mask\.block\[2\]\.um_I\.clk
*335 top_I\.branch\[0\]\.check_mask\.block\[2\]\.um_I\.ena
*336 top_I\.branch\[0\]\.check_mask\.block\[2\]\.um_I\.iw\[10\]
*337 top_I\.branch\[0\]\.check_mask\.block\[2\]\.um_I\.iw\[11\]
*338 top_I\.branch\[0\]\.check_mask\.block\[2\]\.um_I\.iw\[12\]
*339 top_I\.branch\[0\]\.check_mask\.block\[2\]\.um_I\.iw\[13\]
*340 top_I\.branch\[0\]\.check_mask\.block\[2\]\.um_I\.iw\[14\]
*341 top_I\.branch\[0\]\.check_mask\.block\[2\]\.um_I\.iw\[15\]
*342 top_I\.branch\[0\]\.check_mask\.block\[2\]\.um_I\.iw\[16\]
*343 top_I\.branch\[0\]\.check_mask\.block\[2\]\.um_I\.iw\[17\]
*344 top_I\.branch\[0\]\.check_mask\.block\[2\]\.um_I\.iw\[1\]
*345 top_I\.branch\[0\]\.check_mask\.block\[2\]\.um_I\.iw\[2\]
*346 top_I\.branch\[0\]\.check_mask\.block\[2\]\.um_I\.iw\[3\]
*347 top_I\.branch\[0\]\.check_mask\.block\[2\]\.um_I\.iw\[4\]
*348 top_I\.branch\[0\]\.check_mask\.block\[2\]\.um_I\.iw\[5\]
*349 top_I\.branch\[0\]\.check_mask\.block\[2\]\.um_I\.iw\[6\]
*350 top_I\.branch\[0\]\.check_mask\.block\[2\]\.um_I\.iw\[7\]
*351 top_I\.branch\[0\]\.check_mask\.block\[2\]\.um_I\.iw\[8\]
*352 top_I\.branch\[0\]\.check_mask\.block\[2\]\.um_I\.iw\[9\]
*353 top_I\.branch\[0\]\.check_mask\.block\[2\]\.um_I\.k_zero
*354 top_I\.branch\[0\]\.check_mask\.block\[2\]\.um_I\.pg_ena
*355 top_I\.branch\[0\]\.check_mask\.block\[3\]\.um_I\.clk
*356 top_I\.branch\[0\]\.check_mask\.block\[3\]\.um_I\.ena
*357 top_I\.branch\[0\]\.check_mask\.block\[3\]\.um_I\.iw\[10\]
*358 top_I\.branch\[0\]\.check_mask\.block\[3\]\.um_I\.iw\[11\]
*359 top_I\.branch\[0\]\.check_mask\.block\[3\]\.um_I\.iw\[12\]
*360 top_I\.branch\[0\]\.check_mask\.block\[3\]\.um_I\.iw\[13\]
*361 top_I\.branch\[0\]\.check_mask\.block\[3\]\.um_I\.iw\[14\]
*362 top_I\.branch\[0\]\.check_mask\.block\[3\]\.um_I\.iw\[15\]
*363 top_I\.branch\[0\]\.check_mask\.block\[3\]\.um_I\.iw\[16\]
*364 top_I\.branch\[0\]\.check_mask\.block\[3\]\.um_I\.iw\[17\]
*365 top_I\.branch\[0\]\.check_mask\.block\[3\]\.um_I\.iw\[1\]
*366 top_I\.branch\[0\]\.check_mask\.block\[3\]\.um_I\.iw\[2\]
*367 top_I\.branch\[0\]\.check_mask\.block\[3\]\.um_I\.iw\[3\]
*368 top_I\.branch\[0\]\.check_mask\.block\[3\]\.um_I\.iw\[4\]
*369 top_I\.branch\[0\]\.check_mask\.block\[3\]\.um_I\.iw\[5\]
*370 top_I\.branch\[0\]\.check_mask\.block\[3\]\.um_I\.iw\[6\]
*371 top_I\.branch\[0\]\.check_mask\.block\[3\]\.um_I\.iw\[7\]
*372 top_I\.branch\[0\]\.check_mask\.block\[3\]\.um_I\.iw\[8\]
*373 top_I\.branch\[0\]\.check_mask\.block\[3\]\.um_I\.iw\[9\]
*374 top_I\.branch\[0\]\.check_mask\.block\[3\]\.um_I\.k_zero
*375 top_I\.branch\[0\]\.check_mask\.block\[3\]\.um_I\.pg_ena
*376 top_I\.branch\[0\]\.check_mask\.block\[4\]\.um_I\.clk
*377 top_I\.branch\[0\]\.check_mask\.block\[4\]\.um_I\.ena
*378 top_I\.branch\[0\]\.check_mask\.block\[4\]\.um_I\.iw\[10\]
*379 top_I\.branch\[0\]\.check_mask\.block\[4\]\.um_I\.iw\[11\]
*380 top_I\.branch\[0\]\.check_mask\.block\[4\]\.um_I\.iw\[12\]
*381 top_I\.branch\[0\]\.check_mask\.block\[4\]\.um_I\.iw\[13\]
*382 top_I\.branch\[0\]\.check_mask\.block\[4\]\.um_I\.iw\[14\]
*383 top_I\.branch\[0\]\.check_mask\.block\[4\]\.um_I\.iw\[15\]
*384 top_I\.branch\[0\]\.check_mask\.block\[4\]\.um_I\.iw\[16\]
*385 top_I\.branch\[0\]\.check_mask\.block\[4\]\.um_I\.iw\[17\]
*386 top_I\.branch\[0\]\.check_mask\.block\[4\]\.um_I\.iw\[1\]
*387 top_I\.branch\[0\]\.check_mask\.block\[4\]\.um_I\.iw\[2\]
*388 top_I\.branch\[0\]\.check_mask\.block\[4\]\.um_I\.iw\[3\]
*389 top_I\.branch\[0\]\.check_mask\.block\[4\]\.um_I\.iw\[4\]
*390 top_I\.branch\[0\]\.check_mask\.block\[4\]\.um_I\.iw\[5\]
*391 top_I\.branch\[0\]\.check_mask\.block\[4\]\.um_I\.iw\[6\]
*392 top_I\.branch\[0\]\.check_mask\.block\[4\]\.um_I\.iw\[7\]
*393 top_I\.branch\[0\]\.check_mask\.block\[4\]\.um_I\.iw\[8\]
*394 top_I\.branch\[0\]\.check_mask\.block\[4\]\.um_I\.iw\[9\]
*395 top_I\.branch\[0\]\.check_mask\.block\[4\]\.um_I\.k_zero
*396 top_I\.branch\[0\]\.check_mask\.block\[4\]\.um_I\.pg_ena
*397 top_I\.branch\[0\]\.check_mask\.block\[5\]\.um_I\.clk
*398 top_I\.branch\[0\]\.check_mask\.block\[5\]\.um_I\.ena
*399 top_I\.branch\[0\]\.check_mask\.block\[5\]\.um_I\.iw\[10\]
*400 top_I\.branch\[0\]\.check_mask\.block\[5\]\.um_I\.iw\[11\]
*401 top_I\.branch\[0\]\.check_mask\.block\[5\]\.um_I\.iw\[12\]
*402 top_I\.branch\[0\]\.check_mask\.block\[5\]\.um_I\.iw\[13\]
*403 top_I\.branch\[0\]\.check_mask\.block\[5\]\.um_I\.iw\[14\]
*404 top_I\.branch\[0\]\.check_mask\.block\[5\]\.um_I\.iw\[15\]
*405 top_I\.branch\[0\]\.check_mask\.block\[5\]\.um_I\.iw\[16\]
*406 top_I\.branch\[0\]\.check_mask\.block\[5\]\.um_I\.iw\[17\]
*407 top_I\.branch\[0\]\.check_mask\.block\[5\]\.um_I\.iw\[1\]
*408 top_I\.branch\[0\]\.check_mask\.block\[5\]\.um_I\.iw\[2\]
*409 top_I\.branch\[0\]\.check_mask\.block\[5\]\.um_I\.iw\[3\]
*410 top_I\.branch\[0\]\.check_mask\.block\[5\]\.um_I\.iw\[4\]
*411 top_I\.branch\[0\]\.check_mask\.block\[5\]\.um_I\.iw\[5\]
*412 top_I\.branch\[0\]\.check_mask\.block\[5\]\.um_I\.iw\[6\]
*413 top_I\.branch\[0\]\.check_mask\.block\[5\]\.um_I\.iw\[7\]
*414 top_I\.branch\[0\]\.check_mask\.block\[5\]\.um_I\.iw\[8\]
*415 top_I\.branch\[0\]\.check_mask\.block\[5\]\.um_I\.iw\[9\]
*416 top_I\.branch\[0\]\.check_mask\.block\[5\]\.um_I\.k_zero
*417 top_I\.branch\[0\]\.check_mask\.block\[5\]\.um_I\.pg_ena
*418 top_I\.branch\[0\]\.check_mask\.block\[6\]\.um_I\.clk
*419 top_I\.branch\[0\]\.check_mask\.block\[6\]\.um_I\.ena
*420 top_I\.branch\[0\]\.check_mask\.block\[6\]\.um_I\.iw\[10\]
*421 top_I\.branch\[0\]\.check_mask\.block\[6\]\.um_I\.iw\[11\]
*422 top_I\.branch\[0\]\.check_mask\.block\[6\]\.um_I\.iw\[12\]
*423 top_I\.branch\[0\]\.check_mask\.block\[6\]\.um_I\.iw\[13\]
*424 top_I\.branch\[0\]\.check_mask\.block\[6\]\.um_I\.iw\[14\]
*425 top_I\.branch\[0\]\.check_mask\.block\[6\]\.um_I\.iw\[15\]
*426 top_I\.branch\[0\]\.check_mask\.block\[6\]\.um_I\.iw\[16\]
*427 top_I\.branch\[0\]\.check_mask\.block\[6\]\.um_I\.iw\[17\]
*428 top_I\.branch\[0\]\.check_mask\.block\[6\]\.um_I\.iw\[1\]
*429 top_I\.branch\[0\]\.check_mask\.block\[6\]\.um_I\.iw\[2\]
*430 top_I\.branch\[0\]\.check_mask\.block\[6\]\.um_I\.iw\[3\]
*431 top_I\.branch\[0\]\.check_mask\.block\[6\]\.um_I\.iw\[4\]
*432 top_I\.branch\[0\]\.check_mask\.block\[6\]\.um_I\.iw\[5\]
*433 top_I\.branch\[0\]\.check_mask\.block\[6\]\.um_I\.iw\[6\]
*434 top_I\.branch\[0\]\.check_mask\.block\[6\]\.um_I\.iw\[7\]
*435 top_I\.branch\[0\]\.check_mask\.block\[6\]\.um_I\.iw\[8\]
*436 top_I\.branch\[0\]\.check_mask\.block\[6\]\.um_I\.iw\[9\]
*437 top_I\.branch\[0\]\.check_mask\.block\[6\]\.um_I\.k_zero
*438 top_I\.branch\[0\]\.check_mask\.block\[6\]\.um_I\.pg_ena
*439 top_I\.branch\[0\]\.check_mask\.block\[7\]\.um_I\.clk
*440 top_I\.branch\[0\]\.check_mask\.block\[7\]\.um_I\.ena
*441 top_I\.branch\[0\]\.check_mask\.block\[7\]\.um_I\.iw\[10\]
*442 top_I\.branch\[0\]\.check_mask\.block\[7\]\.um_I\.iw\[11\]
*443 top_I\.branch\[0\]\.check_mask\.block\[7\]\.um_I\.iw\[12\]
*444 top_I\.branch\[0\]\.check_mask\.block\[7\]\.um_I\.iw\[13\]
*445 top_I\.branch\[0\]\.check_mask\.block\[7\]\.um_I\.iw\[14\]
*446 top_I\.branch\[0\]\.check_mask\.block\[7\]\.um_I\.iw\[15\]
*447 top_I\.branch\[0\]\.check_mask\.block\[7\]\.um_I\.iw\[16\]
*448 top_I\.branch\[0\]\.check_mask\.block\[7\]\.um_I\.iw\[17\]
*449 top_I\.branch\[0\]\.check_mask\.block\[7\]\.um_I\.iw\[1\]
*450 top_I\.branch\[0\]\.check_mask\.block\[7\]\.um_I\.iw\[2\]
*451 top_I\.branch\[0\]\.check_mask\.block\[7\]\.um_I\.iw\[3\]
*452 top_I\.branch\[0\]\.check_mask\.block\[7\]\.um_I\.iw\[4\]
*453 top_I\.branch\[0\]\.check_mask\.block\[7\]\.um_I\.iw\[5\]
*454 top_I\.branch\[0\]\.check_mask\.block\[7\]\.um_I\.iw\[6\]
*455 top_I\.branch\[0\]\.check_mask\.block\[7\]\.um_I\.iw\[7\]
*456 top_I\.branch\[0\]\.check_mask\.block\[7\]\.um_I\.iw\[8\]
*457 top_I\.branch\[0\]\.check_mask\.block\[7\]\.um_I\.iw\[9\]
*458 top_I\.branch\[0\]\.check_mask\.block\[7\]\.um_I\.k_zero
*459 top_I\.branch\[0\]\.check_mask\.block\[7\]\.um_I\.pg_ena
*460 top_I\.branch\[0\]\.check_mask\.block\[8\]\.um_I\.clk
*461 top_I\.branch\[0\]\.check_mask\.block\[8\]\.um_I\.ena
*462 top_I\.branch\[0\]\.check_mask\.block\[8\]\.um_I\.iw\[10\]
*463 top_I\.branch\[0\]\.check_mask\.block\[8\]\.um_I\.iw\[11\]
*464 top_I\.branch\[0\]\.check_mask\.block\[8\]\.um_I\.iw\[12\]
*465 top_I\.branch\[0\]\.check_mask\.block\[8\]\.um_I\.iw\[13\]
*466 top_I\.branch\[0\]\.check_mask\.block\[8\]\.um_I\.iw\[14\]
*467 top_I\.branch\[0\]\.check_mask\.block\[8\]\.um_I\.iw\[15\]
*468 top_I\.branch\[0\]\.check_mask\.block\[8\]\.um_I\.iw\[16\]
*469 top_I\.branch\[0\]\.check_mask\.block\[8\]\.um_I\.iw\[17\]
*470 top_I\.branch\[0\]\.check_mask\.block\[8\]\.um_I\.iw\[1\]
*471 top_I\.branch\[0\]\.check_mask\.block\[8\]\.um_I\.iw\[2\]
*472 top_I\.branch\[0\]\.check_mask\.block\[8\]\.um_I\.iw\[3\]
*473 top_I\.branch\[0\]\.check_mask\.block\[8\]\.um_I\.iw\[4\]
*474 top_I\.branch\[0\]\.check_mask\.block\[8\]\.um_I\.iw\[5\]
*475 top_I\.branch\[0\]\.check_mask\.block\[8\]\.um_I\.iw\[6\]
*476 top_I\.branch\[0\]\.check_mask\.block\[8\]\.um_I\.iw\[7\]
*477 top_I\.branch\[0\]\.check_mask\.block\[8\]\.um_I\.iw\[8\]
*478 top_I\.branch\[0\]\.check_mask\.block\[8\]\.um_I\.iw\[9\]
*479 top_I\.branch\[0\]\.check_mask\.block\[8\]\.um_I\.k_zero
*480 top_I\.branch\[0\]\.check_mask\.block\[8\]\.um_I\.pg_ena
*481 top_I\.branch\[0\]\.check_mask\.block\[9\]\.um_I\.clk
*482 top_I\.branch\[0\]\.check_mask\.block\[9\]\.um_I\.ena
*483 top_I\.branch\[0\]\.check_mask\.block\[9\]\.um_I\.iw\[10\]
*484 top_I\.branch\[0\]\.check_mask\.block\[9\]\.um_I\.iw\[11\]
*485 top_I\.branch\[0\]\.check_mask\.block\[9\]\.um_I\.iw\[12\]
*486 top_I\.branch\[0\]\.check_mask\.block\[9\]\.um_I\.iw\[13\]
*487 top_I\.branch\[0\]\.check_mask\.block\[9\]\.um_I\.iw\[14\]
*488 top_I\.branch\[0\]\.check_mask\.block\[9\]\.um_I\.iw\[15\]
*489 top_I\.branch\[0\]\.check_mask\.block\[9\]\.um_I\.iw\[16\]
*490 top_I\.branch\[0\]\.check_mask\.block\[9\]\.um_I\.iw\[17\]
*491 top_I\.branch\[0\]\.check_mask\.block\[9\]\.um_I\.iw\[1\]
*492 top_I\.branch\[0\]\.check_mask\.block\[9\]\.um_I\.iw\[2\]
*493 top_I\.branch\[0\]\.check_mask\.block\[9\]\.um_I\.iw\[3\]
*494 top_I\.branch\[0\]\.check_mask\.block\[9\]\.um_I\.iw\[4\]
*495 top_I\.branch\[0\]\.check_mask\.block\[9\]\.um_I\.iw\[5\]
*496 top_I\.branch\[0\]\.check_mask\.block\[9\]\.um_I\.iw\[6\]
*497 top_I\.branch\[0\]\.check_mask\.block\[9\]\.um_I\.iw\[7\]
*498 top_I\.branch\[0\]\.check_mask\.block\[9\]\.um_I\.iw\[8\]
*499 top_I\.branch\[0\]\.check_mask\.block\[9\]\.um_I\.iw\[9\]
*500 top_I\.branch\[0\]\.check_mask\.block\[9\]\.um_I\.k_zero
*501 top_I\.branch\[0\]\.check_mask\.block\[9\]\.um_I\.pg_ena
*502 top_I\.branch\[0\]\.check_mask\.l_addr\[0\]
*503 top_I\.branch\[0\]\.check_mask\.l_k_one
*504 top_I\.branch\[0\]\.check_mask\.l_spine_iw\[0\]
*505 top_I\.branch\[0\]\.check_mask\.l_spine_iw\[10\]
*506 top_I\.branch\[0\]\.check_mask\.l_spine_iw\[11\]
*507 top_I\.branch\[0\]\.check_mask\.l_spine_iw\[12\]
*508 top_I\.branch\[0\]\.check_mask\.l_spine_iw\[13\]
*509 top_I\.branch\[0\]\.check_mask\.l_spine_iw\[14\]
*510 top_I\.branch\[0\]\.check_mask\.l_spine_iw\[15\]
*511 top_I\.branch\[0\]\.check_mask\.l_spine_iw\[16\]
*512 top_I\.branch\[0\]\.check_mask\.l_spine_iw\[17\]
*513 top_I\.branch\[0\]\.check_mask\.l_spine_iw\[18\]
*514 top_I\.branch\[0\]\.check_mask\.l_spine_iw\[19\]
*515 top_I\.branch\[0\]\.check_mask\.l_spine_iw\[1\]
*516 top_I\.branch\[0\]\.check_mask\.l_spine_iw\[20\]
*517 top_I\.branch\[0\]\.check_mask\.l_spine_iw\[21\]
*518 top_I\.branch\[0\]\.check_mask\.l_spine_iw\[22\]
*519 top_I\.branch\[0\]\.check_mask\.l_spine_iw\[23\]
*520 top_I\.branch\[0\]\.check_mask\.l_spine_iw\[24\]
*521 top_I\.branch\[0\]\.check_mask\.l_spine_iw\[25\]
*522 top_I\.branch\[0\]\.check_mask\.l_spine_iw\[26\]
*523 top_I\.branch\[0\]\.check_mask\.l_spine_iw\[27\]
*524 top_I\.branch\[0\]\.check_mask\.l_spine_iw\[28\]
*525 top_I\.branch\[0\]\.check_mask\.l_spine_iw\[29\]
*526 top_I\.branch\[0\]\.check_mask\.l_spine_iw\[2\]
*527 top_I\.branch\[0\]\.check_mask\.l_spine_iw\[3\]
*528 top_I\.branch\[0\]\.check_mask\.l_spine_iw\[4\]
*529 top_I\.branch\[0\]\.check_mask\.l_spine_iw\[5\]
*530 top_I\.branch\[0\]\.check_mask\.l_spine_iw\[6\]
*531 top_I\.branch\[0\]\.check_mask\.l_spine_iw\[7\]
*532 top_I\.branch\[0\]\.check_mask\.l_spine_iw\[8\]
*533 top_I\.branch\[0\]\.check_mask\.l_spine_iw\[9\]
*534 top_I\.branch\[0\]\.check_mask\.l_spine_ow\[0\]
*535 top_I\.branch\[0\]\.check_mask\.l_spine_ow\[10\]
*536 top_I\.branch\[0\]\.check_mask\.l_spine_ow\[11\]
*537 top_I\.branch\[0\]\.check_mask\.l_spine_ow\[12\]
*538 top_I\.branch\[0\]\.check_mask\.l_spine_ow\[13\]
*539 top_I\.branch\[0\]\.check_mask\.l_spine_ow\[14\]
*540 top_I\.branch\[0\]\.check_mask\.l_spine_ow\[15\]
*541 top_I\.branch\[0\]\.check_mask\.l_spine_ow\[16\]
*542 top_I\.branch\[0\]\.check_mask\.l_spine_ow\[17\]
*543 top_I\.branch\[0\]\.check_mask\.l_spine_ow\[18\]
*544 top_I\.branch\[0\]\.check_mask\.l_spine_ow\[19\]
*545 top_I\.branch\[0\]\.check_mask\.l_spine_ow\[1\]
*546 top_I\.branch\[0\]\.check_mask\.l_spine_ow\[20\]
*547 top_I\.branch\[0\]\.check_mask\.l_spine_ow\[21\]
*548 top_I\.branch\[0\]\.check_mask\.l_spine_ow\[22\]
*549 top_I\.branch\[0\]\.check_mask\.l_spine_ow\[23\]
*550 top_I\.branch\[0\]\.check_mask\.l_spine_ow\[24\]
*551 top_I\.branch\[0\]\.check_mask\.l_spine_ow\[25\]
*552 top_I\.branch\[0\]\.check_mask\.l_spine_ow\[2\]
*553 top_I\.branch\[0\]\.check_mask\.l_spine_ow\[3\]
*554 top_I\.branch\[0\]\.check_mask\.l_spine_ow\[4\]
*555 top_I\.branch\[0\]\.check_mask\.l_spine_ow\[5\]
*556 top_I\.branch\[0\]\.check_mask\.l_spine_ow\[6\]
*557 top_I\.branch\[0\]\.check_mask\.l_spine_ow\[7\]
*558 top_I\.branch\[0\]\.check_mask\.l_spine_ow\[8\]
*559 top_I\.branch\[0\]\.check_mask\.l_spine_ow\[9\]
*560 top_I\.branch\[10\]\.check_mask\.block\[0\]\.um_I\.clk
*561 top_I\.branch\[10\]\.check_mask\.block\[0\]\.um_I\.ena
*562 top_I\.branch\[10\]\.check_mask\.block\[0\]\.um_I\.iw\[10\]
*563 top_I\.branch\[10\]\.check_mask\.block\[0\]\.um_I\.iw\[11\]
*564 top_I\.branch\[10\]\.check_mask\.block\[0\]\.um_I\.iw\[12\]
*565 top_I\.branch\[10\]\.check_mask\.block\[0\]\.um_I\.iw\[13\]
*566 top_I\.branch\[10\]\.check_mask\.block\[0\]\.um_I\.iw\[14\]
*567 top_I\.branch\[10\]\.check_mask\.block\[0\]\.um_I\.iw\[15\]
*568 top_I\.branch\[10\]\.check_mask\.block\[0\]\.um_I\.iw\[16\]
*569 top_I\.branch\[10\]\.check_mask\.block\[0\]\.um_I\.iw\[17\]
*570 top_I\.branch\[10\]\.check_mask\.block\[0\]\.um_I\.iw\[1\]
*571 top_I\.branch\[10\]\.check_mask\.block\[0\]\.um_I\.iw\[2\]
*572 top_I\.branch\[10\]\.check_mask\.block\[0\]\.um_I\.iw\[3\]
*573 top_I\.branch\[10\]\.check_mask\.block\[0\]\.um_I\.iw\[4\]
*574 top_I\.branch\[10\]\.check_mask\.block\[0\]\.um_I\.iw\[5\]
*575 top_I\.branch\[10\]\.check_mask\.block\[0\]\.um_I\.iw\[6\]
*576 top_I\.branch\[10\]\.check_mask\.block\[0\]\.um_I\.iw\[7\]
*577 top_I\.branch\[10\]\.check_mask\.block\[0\]\.um_I\.iw\[8\]
*578 top_I\.branch\[10\]\.check_mask\.block\[0\]\.um_I\.iw\[9\]
*579 top_I\.branch\[10\]\.check_mask\.block\[0\]\.um_I\.k_zero
*580 top_I\.branch\[10\]\.check_mask\.block\[0\]\.um_I\.ow\[0\]
*581 top_I\.branch\[10\]\.check_mask\.block\[0\]\.um_I\.ow\[10\]
*582 top_I\.branch\[10\]\.check_mask\.block\[0\]\.um_I\.ow\[11\]
*583 top_I\.branch\[10\]\.check_mask\.block\[0\]\.um_I\.ow\[12\]
*584 top_I\.branch\[10\]\.check_mask\.block\[0\]\.um_I\.ow\[13\]
*585 top_I\.branch\[10\]\.check_mask\.block\[0\]\.um_I\.ow\[14\]
*586 top_I\.branch\[10\]\.check_mask\.block\[0\]\.um_I\.ow\[15\]
*587 top_I\.branch\[10\]\.check_mask\.block\[0\]\.um_I\.ow\[16\]
*588 top_I\.branch\[10\]\.check_mask\.block\[0\]\.um_I\.ow\[17\]
*589 top_I\.branch\[10\]\.check_mask\.block\[0\]\.um_I\.ow\[18\]
*590 top_I\.branch\[10\]\.check_mask\.block\[0\]\.um_I\.ow\[19\]
*591 top_I\.branch\[10\]\.check_mask\.block\[0\]\.um_I\.ow\[1\]
*592 top_I\.branch\[10\]\.check_mask\.block\[0\]\.um_I\.ow\[20\]
*593 top_I\.branch\[10\]\.check_mask\.block\[0\]\.um_I\.ow\[21\]
*594 top_I\.branch\[10\]\.check_mask\.block\[0\]\.um_I\.ow\[22\]
*595 top_I\.branch\[10\]\.check_mask\.block\[0\]\.um_I\.ow\[23\]
*596 top_I\.branch\[10\]\.check_mask\.block\[0\]\.um_I\.ow\[2\]
*597 top_I\.branch\[10\]\.check_mask\.block\[0\]\.um_I\.ow\[3\]
*598 top_I\.branch\[10\]\.check_mask\.block\[0\]\.um_I\.ow\[4\]
*599 top_I\.branch\[10\]\.check_mask\.block\[0\]\.um_I\.ow\[5\]
*600 top_I\.branch\[10\]\.check_mask\.block\[0\]\.um_I\.ow\[6\]