*SPEF "ieee 1481-1999"
*DESIGN "tt_um_chip_rom"
*DATE "20:59:31 Sunday December 07, 2025"
*VENDOR "The OpenROAD Project"
*PROGRAM "OpenROAD"
*VERSION "341650e72dad0dc8571822ff8c5d9c5e365327f7"
*DESIGN_FLOW "NAME_SCOPE LOCAL" "PIN_CAP NONE"
*DIVIDER /
*DELIMITER :
*BUS_DELIMITER []
*T_UNIT 1 NS
*C_UNIT 1 PF
*R_UNIT 1 OHM
*L_UNIT 1 HENRY

*NAME_MAP
*3 clk
*4 ena
*5 rst_n
*6 ui_in[0]
*7 ui_in[1]
*8 ui_in[2]
*9 ui_in[3]
*10 ui_in[4]
*11 ui_in[5]
*12 ui_in[6]
*13 ui_in[7]
*14 uio_in[0]
*15 uio_in[1]
*16 uio_in[2]
*17 uio_in[3]
*18 uio_in[4]
*19 uio_in[5]
*20 uio_in[6]
*21 uio_in[7]
*22 net17
*23 net18
*24 net19
*25 net20
*26 net21
*27 net22
*28 net23
*29 net24
*30 net25
*31 net26
*32 net27
*33 net28
*34 net29
*35 net30
*36 net31
*37 net32
*38 uo_out[0]
*39 uo_out[1]
*40 uo_out[2]
*41 uo_out[3]
*42 uo_out[4]
*43 uo_out[5]
*44 uo_out[6]
*45 uo_out[7]
*46 _000_
*47 _001_
*48 _002_
*49 _003_
*50 _004_
*51 _005_
*52 _006_
*53 _007_
*54 _008_
*55 _009_
*56 _010_
*57 _011_
*58 _012_
*59 _013_
*60 _014_
*61 _015_
*62 _016_
*63 _017_
*64 _018_
*65 _019_
*66 _020_
*67 _021_
*68 _022_
*69 _023_
*70 _024_
*71 _025_
*72 _026_
*73 _027_
*74 _028_
*75 _029_
*76 _030_
*77 _031_
*78 _032_
*79 _033_
*80 _034_
*81 _035_
*82 _036_
*83 _037_
*84 _038_
*85 _039_
*86 _040_
*87 _041_
*88 _042_
*89 _043_
*90 _044_
*91 _045_
*92 _046_
*93 _047_
*94 _048_
*95 _049_
*96 _050_
*97 _051_
*98 _052_
*99 _053_
*100 _054_
*101 _055_
*102 _056_
*103 _057_
*104 _058_
*105 _059_
*106 _060_
*107 _061_
*108 _062_
*109 _063_
*110 _064_
*111 _065_
*112 _066_
*113 _067_
*114 _068_
*115 _069_
*116 _070_
*117 _071_
*118 _072_
*119 _073_
*120 _074_
*121 _075_
*122 _076_
*123 _077_
*124 _078_
*125 _079_
*126 _080_
*127 _081_
*128 _082_
*129 _083_
*130 _084_
*131 _085_
*132 _086_
*133 _087_
*134 _088_
*135 _089_
*136 _090_
*137 _091_
*138 _092_
*139 _093_
*140 _094_
*141 _095_
*142 _096_
*143 _097_
*144 _098_
*145 _099_
*146 _100_
*147 _101_
*148 _102_
*149 _103_
*150 _104_
*151 _105_
*152 _106_
*153 _107_
*154 _108_
*155 _109_
*156 _110_
*157 _111_
*158 _112_
*159 _113_
*160 _114_
*161 _115_
*162 _116_
*163 _117_
*164 _118_
*165 _119_
*166 _120_
*167 _121_
*168 _122_
*169 _123_
*170 _124_
*171 _125_
*172 _126_
*173 _127_
*174 _128_
*175 _129_
*176 _130_
*177 _131_
*178 _132_
*179 _133_
*180 _134_
*181 _135_
*182 _136_
*183 _137_
*184 _138_
*185 _139_
*186 _140_
*187 _141_
*188 _142_
*189 _143_
*190 _144_
*191 _145_
*192 _146_
*193 _147_
*194 _148_
*195 _149_
*196 _150_
*197 _151_
*198 _152_
*199 _153_
*200 _154_
*201 _155_
*202 _156_
*203 _157_
*204 _158_
*205 _159_
*206 _160_
*207 _161_
*208 _162_
*209 _163_
*210 _164_
*211 _165_
*212 _166_
*213 _167_
*214 _168_
*215 _169_
*216 _170_
*217 _171_
*218 _172_
*219 _173_
*220 _174_
*221 _175_
*222 _176_
*223 _177_
*224 _178_
*225 _179_
*226 _180_
*227 _181_
*228 _182_
*229 addr_counter\[0\]
*230 addr_counter\[1\]
*231 addr_counter\[2\]
*232 addr_counter\[3\]
*233 addr_counter\[4\]
*234 addr_counter\[5\]
*235 addr_counter\[6\]
*236 addr_counter\[7\]
*237 clknet_0_clk
*238 clknet_1_0__leaf_clk
*239 clknet_1_1__leaf_clk
*240 net1
*241 net10
*242 net11
*243 net12
*244 net13
*245 net14
*246 net15
*247 net16
*248 net2
*249 net3
*250 net33
*251 net34
*252 net35
*253 net36
*254 net37
*255 net38
*256 net39
*257 net4
*258 net40
*259 net41
*260 net42
*261 net43
*262 net44
*263 net45
*264 net46
*265 net47
*266 net48
*267 net49
*268 net5
*269 net50
*270 net51
*271 net52
*272 net53
*273 net54
*274 net55
*275 net56
*276 net57
*277 net58
*278 net59
*279 net6
*280 net60
*281 net61
*282 net62
*283 net63
*284 net64
*285 net65
*286 net7
*287 net8
*288 net9
*289 FILLER_0_0
*290 FILLER_0_105
*291 FILLER_0_112
*292 FILLER_0_119
*293 FILLER_0_126
*294 FILLER_0_133
*295 FILLER_0_14
*296 FILLER_0_140
*297 FILLER_0_147
*298 FILLER_0_154
*299 FILLER_0_161
*300 FILLER_0_168
*301 FILLER_0_175
*302 FILLER_0_182
*303 FILLER_0_189
*304 FILLER_0_196
*305 FILLER_0_203
*306 FILLER_0_21
*307 FILLER_0_210
*308 FILLER_0_217
*309 FILLER_0_224
*310 FILLER_0_231
*311 FILLER_0_238
*312 FILLER_0_245
*313 FILLER_0_252
*314 FILLER_0_259
*315 FILLER_0_266
*316 FILLER_0_273
*317 FILLER_0_28
*318 FILLER_0_280
*319 FILLER_0_287
*320 FILLER_0_294
*321 FILLER_0_301
*322 FILLER_0_308
*323 FILLER_0_315
*324 FILLER_0_322
*325 FILLER_0_329
*326 FILLER_0_336
*327 FILLER_0_343
*328 FILLER_0_35
*329 FILLER_0_350
*330 FILLER_0_357
*331 FILLER_0_364
*332 FILLER_0_371
*333 FILLER_0_378
*334 FILLER_0_385
*335 FILLER_0_392
*336 FILLER_0_399
*337 FILLER_0_406
*338 FILLER_0_408
*339 FILLER_0_42
*340 FILLER_0_49
*341 FILLER_0_56
*342 FILLER_0_63
*343 FILLER_0_7
*344 FILLER_0_70
*345 FILLER_0_77
*346 FILLER_0_84
*347 FILLER_0_91
*348 FILLER_0_98
*349 FILLER_10_0
*350 FILLER_10_105
*351 FILLER_10_112
*352 FILLER_10_119
*353 FILLER_10_126
*354 FILLER_10_133
*355 FILLER_10_14
*356 FILLER_10_140
*357 FILLER_10_147
*358 FILLER_10_154
*359 FILLER_10_161
*360 FILLER_10_168
*361 FILLER_10_175
*362 FILLER_10_182
*363 FILLER_10_189
*364 FILLER_10_196
*365 FILLER_10_203
*366 FILLER_10_21
*367 FILLER_10_210
*368 FILLER_10_217
*369 FILLER_10_224
*370 FILLER_10_231
*371 FILLER_10_238
*372 FILLER_10_245
*373 FILLER_10_252
*374 FILLER_10_259
*375 FILLER_10_266
*376 FILLER_10_273
*377 FILLER_10_28
*378 FILLER_10_280
*379 FILLER_10_287
*380 FILLER_10_294
*381 FILLER_10_301
*382 FILLER_10_308
*383 FILLER_10_315
*384 FILLER_10_322
*385 FILLER_10_329
*386 FILLER_10_336
*387 FILLER_10_343
*388 FILLER_10_35
*389 FILLER_10_350
*390 FILLER_10_357
*391 FILLER_10_364
*392 FILLER_10_371
*393 FILLER_10_378
*394 FILLER_10_385
*395 FILLER_10_392
*396 FILLER_10_399
*397 FILLER_10_406
*398 FILLER_10_408
*399 FILLER_10_42
*400 FILLER_10_49
*401 FILLER_10_56
*402 FILLER_10_63
*403 FILLER_10_7
*404 FILLER_10_70
*405 FILLER_10_77
*406 FILLER_10_84
*407 FILLER_10_91
*408 FILLER_10_98
*409 FILLER_11_0
*410 FILLER_11_105
*411 FILLER_11_112
*412 FILLER_11_119
*413 FILLER_11_126
*414 FILLER_11_133
*415 FILLER_11_14
*416 FILLER_11_140
*417 FILLER_11_147
*418 FILLER_11_154
*419 FILLER_11_161
*420 FILLER_11_168
*421 FILLER_11_175
*422 FILLER_11_182
*423 FILLER_11_189
*424 FILLER_11_196
*425 FILLER_11_203
*426 FILLER_11_21
*427 FILLER_11_210
*428 FILLER_11_217
*429 FILLER_11_224
*430 FILLER_11_231
*431 FILLER_11_238
*432 FILLER_11_245
*433 FILLER_11_252
*434 FILLER_11_259
*435 FILLER_11_266
*436 FILLER_11_273
*437 FILLER_11_28
*438 FILLER_11_280
*439 FILLER_11_287
*440 FILLER_11_294
*441 FILLER_11_301
*442 FILLER_11_308
*443 FILLER_11_315
*444 FILLER_11_322
*445 FILLER_11_329
*446 FILLER_11_336
*447 FILLER_11_343
*448 FILLER_11_35
*449 FILLER_11_350
*450 FILLER_11_357
*451 FILLER_11_364
*452 FILLER_11_371
*453 FILLER_11_378
*454 FILLER_11_385
*455 FILLER_11_392
*456 FILLER_11_399
*457 FILLER_11_406
*458 FILLER_11_408
*459 FILLER_11_42
*460 FILLER_11_49
*461 FILLER_11_56
*462 FILLER_11_63
*463 FILLER_11_7
*464 FILLER_11_70
*465 FILLER_11_77
*466 FILLER_11_84
*467 FILLER_11_91
*468 FILLER_11_98
*469 FILLER_12_0
*470 FILLER_12_105
*471 FILLER_12_112
*472 FILLER_12_119
*473 FILLER_12_126
*474 FILLER_12_133
*475 FILLER_12_14
*476 FILLER_12_140
*477 FILLER_12_147
*478 FILLER_12_154
*479 FILLER_12_161
*480 FILLER_12_168
*481 FILLER_12_175
*482 FILLER_12_182
*483 FILLER_12_189
*484 FILLER_12_196
*485 FILLER_12_203
*486 FILLER_12_21
*487 FILLER_12_210
*488 FILLER_12_217
*489 FILLER_12_224
*490 FILLER_12_231
*491 FILLER_12_238
*492 FILLER_12_245
*493 FILLER_12_252
*494 FILLER_12_259
*495 FILLER_12_266
*496 FILLER_12_273
*497 FILLER_12_28
*498 FILLER_12_280
*499 FILLER_12_287
*500 FILLER_12_294
*501 FILLER_12_301
*502 FILLER_12_308
*503 FILLER_12_315
*504 FILLER_12_322
*505 FILLER_12_329
*506 FILLER_12_336
*507 FILLER_12_343
*508 FILLER_12_35
*509 FILLER_12_350
*510 FILLER_12_357
*511 FILLER_12_364
*512 FILLER_12_371
*513 FILLER_12_378
*514 FILLER_12_385
*515 FILLER_12_392
*516 FILLER_12_399
*517 FILLER_12_406
*518 FILLER_12_408
*519 FILLER_12_42
*520 FILLER_12_49
*521 FILLER_12_56
*522 FILLER_12_63
*523 FILLER_12_7
*524 FILLER_12_70
*525 FILLER_12_77
*526 FILLER_12_84
*527 FILLER_12_91
*528 FILLER_12_98
*529 FILLER_13_0
*530 FILLER_13_105
*531 FILLER_13_112
*532 FILLER_13_119
*533 FILLER_13_126
*534 FILLER_13_133
*535 FILLER_13_14
*536 FILLER_13_140
*537 FILLER_13_147
*538 FILLER_13_154
*539 FILLER_13_161
*540 FILLER_13_168
*541 FILLER_13_175
*542 FILLER_13_182
*543 FILLER_13_189
*544 FILLER_13_196
*545 FILLER_13_203
*546 FILLER_13_21
*547 FILLER_13_210
*548 FILLER_13_217
*549 FILLER_13_224
*550 FILLER_13_231
*551 FILLER_13_238
*552 FILLER_13_245
*553 FILLER_13_252
*554 FILLER_13_259
*555 FILLER_13_266
*556 FILLER_13_273
*557 FILLER_13_28
*558 FILLER_13_280
*559 FILLER_13_287
*560 FILLER_13_294
*561 FILLER_13_301
*562 FILLER_13_308
*563 FILLER_13_315
*564 FILLER_13_322
*565 FILLER_13_329
*566 FILLER_13_336
*567 FILLER_13_343
*568 FILLER_13_35
*569 FILLER_13_350
*570 FILLER_13_357
*571 FILLER_13_364
*572 FILLER_13_371
*573 FILLER_13_378
*574 FILLER_13_385
*575 FILLER_13_392
*576 FILLER_13_399
*577 FILLER_13_406
*578 FILLER_13_408
*579 FILLER_13_42
*580 FILLER_13_49
*581 FILLER_13_56
*582 FILLER_13_63
*583 FILLER_13_7
*584 FILLER_13_70
*585 FILLER_13_77
*586 FILLER_13_84
*587 FILLER_13_91
*588 FILLER_13_98
*589 FILLER_14_0
*590 FILLER_14_105
*591 FILLER_14_112
*592 FILLER_14_119
*593 FILLER_14_126
*594 FILLER_14_133
*595 FILLER_14_14
*596 FILLER_14_140
*597 FILLER_14_147
*598 FILLER_14_154
*599 FILLER_14_161
*600 FILLER_14_168
*601 FILLER_14_175
*602 FILLER_14_182
*603 FILLER_14_189
*604 FILLER_14_196
*605 FILLER_14_203
*606 FILLER_14_21
*607 FILLER_14_210
*608 FILLER_14_217
*609 FILLER_14_224
*610 FILLER_14_231
*611 FILLER_14_238
*612 FILLER_14_245
*613 FILLER_14_252
*614 FILLER_14_259
*615 FILLER_14_266
*616 FILLER_14_273
*617 FILLER_14_28
*618 FILLER_14_280
*619 FILLER_14_287
*620 FILLER_14_294
*621 FILLER_14_301
*622 FILLER_14_308
*623 FILLER_14_315
*624 FILLER_14_322
*625 FILLER_14_329
*626 FILLER_14_336
*627 FILLER_14_343
*628 FILLER_14_35
*629 FILLER_14_350
*630 FILLER_14_357
*631 FILLER_14_364
*632 FILLER_14_371
*633 FILLER_14_378
*634 FILLER_14_385
*635 FILLER_14_392
*636 FILLER_14_399
*637 FILLER_14_406
*638 FILLER_14_408
*639 FILLER_14_42
*640 FILLER_14_49
*641 FILLER_14_56
*642 FILLER_14_63
*643 FILLER_14_7
*644 FILLER_14_70
*645 FILLER_14_77
*646 FILLER_14_84
*647 FILLER_14_91
*648 FILLER_14_98
*649 FILLER_15_0
*650 FILLER_15_105
*651 FILLER_15_112
*652 FILLER_15_119
*653 FILLER_15_126
*654 FILLER_15_133
*655 FILLER_15_14
*656 FILLER_15_140
*657 FILLER_15_147
*658 FILLER_15_154
*659 FILLER_15_161
*660 FILLER_15_168
*661 FILLER_15_175
*662 FILLER_15_182
*663 FILLER_15_189
*664 FILLER_15_196
*665 FILLER_15_203
*666 FILLER_15_21
*667 FILLER_15_210
*668 FILLER_15_217
*669 FILLER_15_224
*670 FILLER_15_231
*671 FILLER_15_238
*672 FILLER_15_245
*673 FILLER_15_252
*674 FILLER_15_259
*675 FILLER_15_266
*676 FILLER_15_273
*677 FILLER_15_28
*678 FILLER_15_280
*679 FILLER_15_287
*680 FILLER_15_294
*681 FILLER_15_301
*682 FILLER_15_308
*683 FILLER_15_315
*684 FILLER_15_322
*685 FILLER_15_329
*686 FILLER_15_336
*687 FILLER_15_343
*688 FILLER_15_35
*689 FILLER_15_350
*690 FILLER_15_357
*691 FILLER_15_364
*692 FILLER_15_371
*693 FILLER_15_378
*694 FILLER_15_385
*695 FILLER_15_392
*696 FILLER_15_399
*697 FILLER_15_406
*698 FILLER_15_408
*699 FILLER_15_42
*700 FILLER_15_49
*701 FILLER_15_56
*702 FILLER_15_63
*703 FILLER_15_7
*704 FILLER_15_70
*705 FILLER_15_77
*706 FILLER_15_84
*707 FILLER_15_91
*708 FILLER_15_98
*709 FILLER_16_0
*710 FILLER_16_105
*711 FILLER_16_112
*712 FILLER_16_119
*713 FILLER_16_126
*714 FILLER_16_133
*715 FILLER_16_14
*716 FILLER_16_140
*717 FILLER_16_147
*718 FILLER_16_154
*719 FILLER_16_161
*720 FILLER_16_168
*721 FILLER_16_175
*722 FILLER_16_182
*723 FILLER_16_189
*724 FILLER_16_196
*725 FILLER_16_203
*726 FILLER_16_21
*727 FILLER_16_210
*728 FILLER_16_217
*729 FILLER_16_224
*730 FILLER_16_231
*731 FILLER_16_238
*732 FILLER_16_245
*733 FILLER_16_252
*734 FILLER_16_259
*735 FILLER_16_266
*736 FILLER_16_273
*737 FILLER_16_28
*738 FILLER_16_280
*739 FILLER_16_287
*740 FILLER_16_294
*741 FILLER_16_301
*742 FILLER_16_308
*743 FILLER_16_315
*744 FILLER_16_322
*745 FILLER_16_329
*746 FILLER_16_336
*747 FILLER_16_343
*748 FILLER_16_35
*749 FILLER_16_350
*750 FILLER_16_357
*751 FILLER_16_364
*752 FILLER_16_371
*753 FILLER_16_378
*754 FILLER_16_385
*755 FILLER_16_392
*756 FILLER_16_399
*757 FILLER_16_406
*758 FILLER_16_408
*759 FILLER_16_42
*760 FILLER_16_49
*761 FILLER_16_56
*762 FILLER_16_63
*763 FILLER_16_7
*764 FILLER_16_70
*765 FILLER_16_77
*766 FILLER_16_84
*767 FILLER_16_91
*768 FILLER_16_98
*769 FILLER_17_0
*770 FILLER_17_105
*771 FILLER_17_112
*772 FILLER_17_119
*773 FILLER_17_126
*774 FILLER_17_133
*775 FILLER_17_14
*776 FILLER_17_140
*777 FILLER_17_147
*778 FILLER_17_154
*779 FILLER_17_161
*780 FILLER_17_168
*781 FILLER_17_175
*782 FILLER_17_182
*783 FILLER_17_189
*784 FILLER_17_196
*785 FILLER_17_203
*786 FILLER_17_21
*787 FILLER_17_210
*788 FILLER_17_217
*789 FILLER_17_224
*790 FILLER_17_231
*791 FILLER_17_238
*792 FILLER_17_245
*793 FILLER_17_252
*794 FILLER_17_259
*795 FILLER_17_266
*796 FILLER_17_273
*797 FILLER_17_28
*798 FILLER_17_280
*799 FILLER_17_287
*800 FILLER_17_294
*801 FILLER_17_301
*802 FILLER_17_308
*803 FILLER_17_315
*804 FILLER_17_322
*805 FILLER_17_329
*806 FILLER_17_336
*807 FILLER_17_343
*808 FILLER_17_35
*809 FILLER_17_350
*810 FILLER_17_357
*811 FILLER_17_364
*812 FILLER_17_371
*813 FILLER_17_378
*814 FILLER_17_385
*815 FILLER_17_392
*816 FILLER_17_399
*817 FILLER_17_406
*818 FILLER_17_408
*819 FILLER_17_42
*820 FILLER_17_49
*821 FILLER_17_56
*822 FILLER_17_63
*823 FILLER_17_7
*824 FILLER_17_70
*825 FILLER_17_77
*826 FILLER_17_84
*827 FILLER_17_91
*828 FILLER_17_98
*829 FILLER_18_0
*830 FILLER_18_105
*831 FILLER_18_112
*832 FILLER_18_119
*833 FILLER_18_126
*834 FILLER_18_133
*835 FILLER_18_14
*836 FILLER_18_140
*837 FILLER_18_147
*838 FILLER_18_154
*839 FILLER_18_161
*840 FILLER_18_168
*841 FILLER_18_175
*842 FILLER_18_182
*843 FILLER_18_189
*844 FILLER_18_196
*845 FILLER_18_203
*846 FILLER_18_21
*847 FILLER_18_210
*848 FILLER_18_217
*849 FILLER_18_224
*850 FILLER_18_231
*851 FILLER_18_238
*852 FILLER_18_245
*853 FILLER_18_252
*854 FILLER_18_259
*855 FILLER_18_266
*856 FILLER_18_28
*857 FILLER_18_298
*858 FILLER_18_305
*859 FILLER_18_312
*860 FILLER_18_319
*861 FILLER_18_326
*862 FILLER_18_333
*863 FILLER_18_340
*864 FILLER_18_347
*865 FILLER_18_35
*866 FILLER_18_354
*867 FILLER_18_361
*868 FILLER_18_368
*869 FILLER_18_370
*870 FILLER_18_399
*871 FILLER_18_406
*872 FILLER_18_408
*873 FILLER_18_42
*874 FILLER_18_49
*875 FILLER_18_56
*876 FILLER_18_63
*877 FILLER_18_7
*878 FILLER_18_70
*879 FILLER_18_77
*880 FILLER_18_84
*881 FILLER_18_91
*882 FILLER_18_98
*883 FILLER_19_0
*884 FILLER_19_105
*885 FILLER_19_112
*886 FILLER_19_119
*887 FILLER_19_126
*888 FILLER_19_133
*889 FILLER_19_14
*890 FILLER_19_140
*891 FILLER_19_147
*892 FILLER_19_154
*893 FILLER_19_161
*894 FILLER_19_168
*895 FILLER_19_175
*896 FILLER_19_182
*897 FILLER_19_189
*898 FILLER_19_196
*899 FILLER_19_203
*900 FILLER_19_21
*901 FILLER_19_210
*902 FILLER_19_217
*903 FILLER_19_224
*904 FILLER_19_231
*905 FILLER_19_238
*906 FILLER_19_245
*907 FILLER_19_252
*908 FILLER_19_259
*909 FILLER_19_266
*910 FILLER_19_273
*911 FILLER_19_278
*912 FILLER_19_28
*913 FILLER_19_288
*914 FILLER_19_292
*915 FILLER_19_302
*916 FILLER_19_309
*917 FILLER_19_313
*918 FILLER_19_347
*919 FILLER_19_35
*920 FILLER_19_354
*921 FILLER_19_366
*922 FILLER_19_377
*923 FILLER_19_387
*924 FILLER_19_394
*925 FILLER_19_401
*926 FILLER_19_408
*927 FILLER_19_42
*928 FILLER_19_49
*929 FILLER_19_56
*930 FILLER_19_63
*931 FILLER_19_7
*932 FILLER_19_70
*933 FILLER_19_77
*934 FILLER_19_84
*935 FILLER_19_91
*936 FILLER_19_98
*937 FILLER_1_0
*938 FILLER_1_105
*939 FILLER_1_112
*940 FILLER_1_119
*941 FILLER_1_126
*942 FILLER_1_133
*943 FILLER_1_14
*944 FILLER_1_140
*945 FILLER_1_147
*946 FILLER_1_154
*947 FILLER_1_161
*948 FILLER_1_168
*949 FILLER_1_175
*950 FILLER_1_182
*951 FILLER_1_189
*952 FILLER_1_196
*953 FILLER_1_203
*954 FILLER_1_21
*955 FILLER_1_210
*956 FILLER_1_217
*957 FILLER_1_224
*958 FILLER_1_231
*959 FILLER_1_238
*960 FILLER_1_245
*961 FILLER_1_252
*962 FILLER_1_259
*963 FILLER_1_266
*964 FILLER_1_273
*965 FILLER_1_28
*966 FILLER_1_280
*967 FILLER_1_287
*968 FILLER_1_294
*969 FILLER_1_301
*970 FILLER_1_308
*971 FILLER_1_315
*972 FILLER_1_322
*973 FILLER_1_329
*974 FILLER_1_336
*975 FILLER_1_343
*976 FILLER_1_35
*977 FILLER_1_350
*978 FILLER_1_357
*979 FILLER_1_364
*980 FILLER_1_371
*981 FILLER_1_378
*982 FILLER_1_385
*983 FILLER_1_392
*984 FILLER_1_399
*985 FILLER_1_406
*986 FILLER_1_408
*987 FILLER_1_42
*988 FILLER_1_49
*989 FILLER_1_56
*990 FILLER_1_63
*991 FILLER_1_7
*992 FILLER_1_70
*993 FILLER_1_77
*994 FILLER_1_84
*995 FILLER_1_91
*996 FILLER_1_98
*997 FILLER_20_0
*998 FILLER_20_105
*999 FILLER_20_112
*1000 FILLER_20_119
*1001 FILLER_20_126
*1002 FILLER_20_133
*1003 FILLER_20_14
*1004 FILLER_20_140
*1005 FILLER_20_147
*1006 FILLER_20_154
*1007 FILLER_20_161
*1008 FILLER_20_168
*1009 FILLER_20_185
*1010 FILLER_20_192
*1011 FILLER_20_199
*1012 FILLER_20_206
*1013 FILLER_20_21
*1014 FILLER_20_213
*1015 FILLER_20_220
*1016 FILLER_20_227
*1017 FILLER_20_234
*1018 FILLER_20_241
*1019 FILLER_20_248
*1020 FILLER_20_255
*1021 FILLER_20_262
*1022 FILLER_20_269
*1023 FILLER_20_276
*1024 FILLER_20_28
*1025 FILLER_20_283
*1026 FILLER_20_293
*1027 FILLER_20_300
*1028 FILLER_20_307
*1029 FILLER_20_314
*1030 FILLER_20_318
*1031 FILLER_20_332
*1032 FILLER_20_336
*1033 FILLER_20_346
*1034 FILLER_20_35
*1035 FILLER_20_353
*1036 FILLER_20_360
*1037 FILLER_20_367
*1038 FILLER_20_371
*1039 FILLER_20_376
*1040 FILLER_20_383
*1041 FILLER_20_390
*1042 FILLER_20_397
*1043 FILLER_20_404
*1044 FILLER_20_408
*1045 FILLER_20_42
*1046 FILLER_20_49
*1047 FILLER_20_56
*1048 FILLER_20_63
*1049 FILLER_20_7
*1050 FILLER_20_70
*1051 FILLER_20_77
*1052 FILLER_20_84
*1053 FILLER_20_91
*1054 FILLER_20_98
*1055 FILLER_21_0
*1056 FILLER_21_113
*1057 FILLER_21_120
*1058 FILLER_21_127
*1059 FILLER_21_134
*1060 FILLER_21_138
*1061 FILLER_21_14
*1062 FILLER_21_153
*1063 FILLER_21_160
*1064 FILLER_21_167
*1065 FILLER_21_174
*1066 FILLER_21_181
*1067 FILLER_21_188
*1068 FILLER_21_195
*1069 FILLER_21_202
*1070 FILLER_21_209
*1071 FILLER_21_21
*1072 FILLER_21_216
*1073 FILLER_21_223
*1074 FILLER_21_247
*1075 FILLER_21_254
*1076 FILLER_21_261
*1077 FILLER_21_268
*1078 FILLER_21_28
*1079 FILLER_21_282
*1080 FILLER_21_289
*1081 FILLER_21_296
*1082 FILLER_21_303
*1083 FILLER_21_310
*1084 FILLER_21_317
*1085 FILLER_21_324
*1086 FILLER_21_331
*1087 FILLER_21_338
*1088 FILLER_21_345
*1089 FILLER_21_35
*1090 FILLER_21_352
*1091 FILLER_21_359
*1092 FILLER_21_366
*1093 FILLER_21_368
*1094 FILLER_21_372
*1095 FILLER_21_376
*1096 FILLER_21_387
*1097 FILLER_21_394
*1098 FILLER_21_401
*1099 FILLER_21_408
*1100 FILLER_21_42
*1101 FILLER_21_49
*1102 FILLER_21_56
*1103 FILLER_21_63
*1104 FILLER_21_7
*1105 FILLER_21_70
*1106 FILLER_21_77
*1107 FILLER_21_84
*1108 FILLER_21_91
*1109 FILLER_21_98
*1110 FILLER_22_0
*1111 FILLER_22_100
*1112 FILLER_22_107
*1113 FILLER_22_114
*1114 FILLER_22_121
*1115 FILLER_22_128
*1116 FILLER_22_135
*1117 FILLER_22_14
*1118 FILLER_22_142
*1119 FILLER_22_149
*1120 FILLER_22_156
*1121 FILLER_22_163
*1122 FILLER_22_170
*1123 FILLER_22_176
*1124 FILLER_22_183
*1125 FILLER_22_190
*1126 FILLER_22_197
*1127 FILLER_22_199
*1128 FILLER_22_205
*1129 FILLER_22_21
*1130 FILLER_22_212
*1131 FILLER_22_219
*1132 FILLER_22_226
*1133 FILLER_22_233
*1134 FILLER_22_239
*1135 FILLER_22_246
*1136 FILLER_22_253
*1137 FILLER_22_260
*1138 FILLER_22_274
*1139 FILLER_22_28
*1140 FILLER_22_281
*1141 FILLER_22_295
*1142 FILLER_22_302
*1143 FILLER_22_309
*1144 FILLER_22_316
*1145 FILLER_22_323
*1146 FILLER_22_330
*1147 FILLER_22_337
*1148 FILLER_22_344
*1149 FILLER_22_348
*1150 FILLER_22_35
*1151 FILLER_22_400
*1152 FILLER_22_407
*1153 FILLER_22_42
*1154 FILLER_22_49
*1155 FILLER_22_56
*1156 FILLER_22_63
*1157 FILLER_22_7
*1158 FILLER_22_70
*1159 FILLER_22_77
*1160 FILLER_22_93
*1161 FILLER_23_0
*1162 FILLER_23_105
*1163 FILLER_23_112
*1164 FILLER_23_119
*1165 FILLER_23_123
*1166 FILLER_23_14
*1167 FILLER_23_142
*1168 FILLER_23_149
*1169 FILLER_23_156
*1170 FILLER_23_188
*1171 FILLER_23_195
*1172 FILLER_23_202
*1173 FILLER_23_209
*1174 FILLER_23_21
*1175 FILLER_23_213
*1176 FILLER_23_218
*1177 FILLER_23_224
*1178 FILLER_23_231
*1179 FILLER_23_238
*1180 FILLER_23_245
*1181 FILLER_23_252
*1182 FILLER_23_259
*1183 FILLER_23_266
*1184 FILLER_23_273
*1185 FILLER_23_28
*1186 FILLER_23_280
*1187 FILLER_23_287
*1188 FILLER_23_294
*1189 FILLER_23_301
*1190 FILLER_23_308
*1191 FILLER_23_315
*1192 FILLER_23_322
*1193 FILLER_23_329
*1194 FILLER_23_336
*1195 FILLER_23_343
*1196 FILLER_23_35
*1197 FILLER_23_350
*1198 FILLER_23_357
*1199 FILLER_23_364
*1200 FILLER_23_371
*1201 FILLER_23_378
*1202 FILLER_23_385
*1203 FILLER_23_392
*1204 FILLER_23_399
*1205 FILLER_23_406
*1206 FILLER_23_408
*1207 FILLER_23_42
*1208 FILLER_23_46
*1209 FILLER_23_64
*1210 FILLER_23_7
*1211 FILLER_23_71
*1212 FILLER_23_78
*1213 FILLER_23_85
*1214 FILLER_23_87
*1215 FILLER_23_93
*1216 FILLER_23_97
*1217 FILLER_24_0
*1218 FILLER_24_102
*1219 FILLER_24_109
*1220 FILLER_24_117
*1221 FILLER_24_124
*1222 FILLER_24_134
*1223 FILLER_24_14
*1224 FILLER_24_141
*1225 FILLER_24_148
*1226 FILLER_24_155
*1227 FILLER_24_162
*1228 FILLER_24_169
*1229 FILLER_24_171
*1230 FILLER_24_177
*1231 FILLER_24_193
*1232 FILLER_24_200
*1233 FILLER_24_207
*1234 FILLER_24_21
*1235 FILLER_24_214
*1236 FILLER_24_221
*1237 FILLER_24_228
*1238 FILLER_24_235
*1239 FILLER_24_242
*1240 FILLER_24_249
*1241 FILLER_24_256
*1242 FILLER_24_263
*1243 FILLER_24_270
*1244 FILLER_24_277
*1245 FILLER_24_28
*1246 FILLER_24_284
*1247 FILLER_24_291
*1248 FILLER_24_300
*1249 FILLER_24_307
*1250 FILLER_24_314
*1251 FILLER_24_328
*1252 FILLER_24_335
*1253 FILLER_24_35
*1254 FILLER_24_362
*1255 FILLER_24_369
*1256 FILLER_24_376
*1257 FILLER_24_383
*1258 FILLER_24_390
*1259 FILLER_24_397
*1260 FILLER_24_404
*1261 FILLER_24_408
*1262 FILLER_24_42
*1263 FILLER_24_49
*1264 FILLER_24_56
*1265 FILLER_24_63
*1266 FILLER_24_7
*1267 FILLER_24_70
*1268 FILLER_24_77
*1269 FILLER_24_84
*1270 FILLER_24_88
*1271 FILLER_24_95
*1272 FILLER_25_0
*1273 FILLER_25_106
*1274 FILLER_25_113
*1275 FILLER_25_120
*1276 FILLER_25_127
*1277 FILLER_25_134
*1278 FILLER_25_14
*1279 FILLER_25_141
*1280 FILLER_25_148
*1281 FILLER_25_155
*1282 FILLER_25_162
*1283 FILLER_25_169
*1284 FILLER_25_176
*1285 FILLER_25_180
*1286 FILLER_25_187
*1287 FILLER_25_194
*1288 FILLER_25_201
*1289 FILLER_25_208
*1290 FILLER_25_21
*1291 FILLER_25_215
*1292 FILLER_25_222
*1293 FILLER_25_229
*1294 FILLER_25_235
*1295 FILLER_25_242
*1296 FILLER_25_251
*1297 FILLER_25_253
*1298 FILLER_25_259
*1299 FILLER_25_266
*1300 FILLER_25_273
*1301 FILLER_25_28
*1302 FILLER_25_280
*1303 FILLER_25_287
*1304 FILLER_25_294
*1305 FILLER_25_301
*1306 FILLER_25_308
*1307 FILLER_25_327
*1308 FILLER_25_334
*1309 FILLER_25_341
*1310 FILLER_25_348
*1311 FILLER_25_35
*1312 FILLER_25_355
*1313 FILLER_25_362
*1314 FILLER_25_371
*1315 FILLER_25_375
*1316 FILLER_25_382
*1317 FILLER_25_393
*1318 FILLER_25_400
*1319 FILLER_25_407
*1320 FILLER_25_42
*1321 FILLER_25_57
*1322 FILLER_25_64
*1323 FILLER_25_7
*1324 FILLER_25_71
*1325 FILLER_25_78
*1326 FILLER_25_85
*1327 FILLER_25_92
*1328 FILLER_25_99
*1329 FILLER_26_0
*1330 FILLER_26_106
*1331 FILLER_26_113
*1332 FILLER_26_120
*1333 FILLER_26_124
*1334 FILLER_26_130
*1335 FILLER_26_137
*1336 FILLER_26_14
*1337 FILLER_26_144
*1338 FILLER_26_151
*1339 FILLER_26_158
*1340 FILLER_26_165
*1341 FILLER_26_172
*1342 FILLER_26_179
*1343 FILLER_26_186
*1344 FILLER_26_193
*1345 FILLER_26_200
*1346 FILLER_26_207
*1347 FILLER_26_21
*1348 FILLER_26_214
*1349 FILLER_26_221
*1350 FILLER_26_230
*1351 FILLER_26_247
*1352 FILLER_26_253
*1353 FILLER_26_260
*1354 FILLER_26_273
*1355 FILLER_26_28
*1356 FILLER_26_280
*1357 FILLER_26_287
*1358 FILLER_26_304
*1359 FILLER_26_311
*1360 FILLER_26_326
*1361 FILLER_26_333
*1362 FILLER_26_340
*1363 FILLER_26_35
*1364 FILLER_26_360
*1365 FILLER_26_364
*1366 FILLER_26_403
*1367 FILLER_26_407
*1368 FILLER_26_42
*1369 FILLER_26_49
*1370 FILLER_26_51
*1371 FILLER_26_64
*1372 FILLER_26_7
*1373 FILLER_26_71
*1374 FILLER_26_78
*1375 FILLER_26_85
*1376 FILLER_26_92
*1377 FILLER_26_99
*1378 FILLER_27_0
*1379 FILLER_27_103
*1380 FILLER_27_109
*1381 FILLER_27_113
*1382 FILLER_27_119
*1383 FILLER_27_126
*1384 FILLER_27_133
*1385 FILLER_27_14
*1386 FILLER_27_140
*1387 FILLER_27_144
*1388 FILLER_27_153
*1389 FILLER_27_157
*1390 FILLER_27_171
*1391 FILLER_27_188
*1392 FILLER_27_195
*1393 FILLER_27_202
*1394 FILLER_27_209
*1395 FILLER_27_21
*1396 FILLER_27_216
*1397 FILLER_27_223
*1398 FILLER_27_235
*1399 FILLER_27_242
*1400 FILLER_27_246
*1401 FILLER_27_252
*1402 FILLER_27_259
*1403 FILLER_27_266
*1404 FILLER_27_273
*1405 FILLER_27_28
*1406 FILLER_27_280
*1407 FILLER_27_287
*1408 FILLER_27_294
*1409 FILLER_27_301
*1410 FILLER_27_308
*1411 FILLER_27_315
*1412 FILLER_27_322
*1413 FILLER_27_329
*1414 FILLER_27_336
*1415 FILLER_27_343
*1416 FILLER_27_35
*1417 FILLER_27_350
*1418 FILLER_27_357
*1419 FILLER_27_364
*1420 FILLER_27_371
*1421 FILLER_27_378
*1422 FILLER_27_385
*1423 FILLER_27_392
*1424 FILLER_27_399
*1425 FILLER_27_406
*1426 FILLER_27_408
*1427 FILLER_27_42
*1428 FILLER_27_49
*1429 FILLER_27_51
*1430 FILLER_27_68
*1431 FILLER_27_7
*1432 FILLER_27_75
*1433 FILLER_27_82
*1434 FILLER_27_89
*1435 FILLER_27_93
*1436 FILLER_28_0
*1437 FILLER_28_102
*1438 FILLER_28_117
*1439 FILLER_28_124
*1440 FILLER_28_131
*1441 FILLER_28_138
*1442 FILLER_28_14
*1443 FILLER_28_144
*1444 FILLER_28_148
*1445 FILLER_28_154
*1446 FILLER_28_161
*1447 FILLER_28_168
*1448 FILLER_28_175
*1449 FILLER_28_182
*1450 FILLER_28_186
*1451 FILLER_28_193
*1452 FILLER_28_200
*1453 FILLER_28_207
*1454 FILLER_28_21
*1455 FILLER_28_214
*1456 FILLER_28_218
*1457 FILLER_28_225
*1458 FILLER_28_232
*1459 FILLER_28_239
*1460 FILLER_28_246
*1461 FILLER_28_253
*1462 FILLER_28_260
*1463 FILLER_28_267
*1464 FILLER_28_274
*1465 FILLER_28_28
*1466 FILLER_28_281
*1467 FILLER_28_288
*1468 FILLER_28_295
*1469 FILLER_28_302
*1470 FILLER_28_320
*1471 FILLER_28_327
*1472 FILLER_28_334
*1473 FILLER_28_336
*1474 FILLER_28_35
*1475 FILLER_28_350
*1476 FILLER_28_352
*1477 FILLER_28_359
*1478 FILLER_28_366
*1479 FILLER_28_373
*1480 FILLER_28_380
*1481 FILLER_28_387
*1482 FILLER_28_394
*1483 FILLER_28_401
*1484 FILLER_28_408
*1485 FILLER_28_42
*1486 FILLER_28_49
*1487 FILLER_28_51
*1488 FILLER_28_56
*1489 FILLER_28_63
*1490 FILLER_28_7
*1491 FILLER_28_70
*1492 FILLER_28_77
*1493 FILLER_28_84
*1494 FILLER_28_91
*1495 FILLER_28_98
*1496 FILLER_29_0
*1497 FILLER_29_104
*1498 FILLER_29_111
*1499 FILLER_29_118
*1500 FILLER_29_125
*1501 FILLER_29_132
*1502 FILLER_29_139
*1503 FILLER_29_14
*1504 FILLER_29_146
*1505 FILLER_29_153
*1506 FILLER_29_160
*1507 FILLER_29_167
*1508 FILLER_29_174
*1509 FILLER_29_181
*1510 FILLER_29_188
*1511 FILLER_29_195
*1512 FILLER_29_202
*1513 FILLER_29_21
*1514 FILLER_29_211
*1515 FILLER_29_213
*1516 FILLER_29_219
*1517 FILLER_29_226
*1518 FILLER_29_233
*1519 FILLER_29_240
*1520 FILLER_29_247
*1521 FILLER_29_251
*1522 FILLER_29_257
*1523 FILLER_29_264
*1524 FILLER_29_271
*1525 FILLER_29_278
*1526 FILLER_29_28
*1527 FILLER_29_285
*1528 FILLER_29_292
*1529 FILLER_29_299
*1530 FILLER_29_306
*1531 FILLER_29_310
*1532 FILLER_29_317
*1533 FILLER_29_324
*1534 FILLER_29_331
*1535 FILLER_29_338
*1536 FILLER_29_345
*1537 FILLER_29_35
*1538 FILLER_29_352
*1539 FILLER_29_359
*1540 FILLER_29_373
*1541 FILLER_29_380
*1542 FILLER_29_387
*1543 FILLER_29_402
*1544 FILLER_29_42
*1545 FILLER_29_49
*1546 FILLER_29_56
*1547 FILLER_29_63
*1548 FILLER_29_7
*1549 FILLER_29_70
*1550 FILLER_29_83
*1551 FILLER_29_90
*1552 FILLER_29_97
*1553 FILLER_2_0
*1554 FILLER_2_105
*1555 FILLER_2_112
*1556 FILLER_2_119
*1557 FILLER_2_126
*1558 FILLER_2_133
*1559 FILLER_2_14
*1560 FILLER_2_140
*1561 FILLER_2_147
*1562 FILLER_2_154
*1563 FILLER_2_161
*1564 FILLER_2_168
*1565 FILLER_2_175
*1566 FILLER_2_182
*1567 FILLER_2_189
*1568 FILLER_2_196
*1569 FILLER_2_203
*1570 FILLER_2_21
*1571 FILLER_2_210
*1572 FILLER_2_217
*1573 FILLER_2_224
*1574 FILLER_2_231
*1575 FILLER_2_238
*1576 FILLER_2_245
*1577 FILLER_2_252
*1578 FILLER_2_259
*1579 FILLER_2_266
*1580 FILLER_2_273
*1581 FILLER_2_28
*1582 FILLER_2_280
*1583 FILLER_2_287
*1584 FILLER_2_294
*1585 FILLER_2_301
*1586 FILLER_2_308
*1587 FILLER_2_315
*1588 FILLER_2_322
*1589 FILLER_2_329
*1590 FILLER_2_336
*1591 FILLER_2_343
*1592 FILLER_2_35
*1593 FILLER_2_350
*1594 FILLER_2_357
*1595 FILLER_2_364
*1596 FILLER_2_371
*1597 FILLER_2_378
*1598 FILLER_2_385
*1599 FILLER_2_392
*1600 FILLER_2_399
*1601 FILLER_2_406
*1602 FILLER_2_408
*1603 FILLER_2_42
*1604 FILLER_2_49
*1605 FILLER_2_56
*1606 FILLER_2_63
*1607 FILLER_2_7
*1608 FILLER_2_70
*1609 FILLER_2_77
*1610 FILLER_2_84
*1611 FILLER_2_91
*1612 FILLER_2_98
*1613 FILLER_30_0
*1614 FILLER_30_102
*1615 FILLER_30_111
*1616 FILLER_30_118
*1617 FILLER_30_125
*1618 FILLER_30_129
*1619 FILLER_30_134
*1620 FILLER_30_14
*1621 FILLER_30_141
*1622 FILLER_30_148
*1623 FILLER_30_152
*1624 FILLER_30_158
*1625 FILLER_30_165
*1626 FILLER_30_172
*1627 FILLER_30_179
*1628 FILLER_30_186
*1629 FILLER_30_193
*1630 FILLER_30_195
*1631 FILLER_30_202
*1632 FILLER_30_209
*1633 FILLER_30_21
*1634 FILLER_30_216
*1635 FILLER_30_223
*1636 FILLER_30_230
*1637 FILLER_30_237
*1638 FILLER_30_244
*1639 FILLER_30_251
*1640 FILLER_30_255
*1641 FILLER_30_261
*1642 FILLER_30_28
*1643 FILLER_30_280
*1644 FILLER_30_287
*1645 FILLER_30_307
*1646 FILLER_30_314
*1647 FILLER_30_321
*1648 FILLER_30_325
*1649 FILLER_30_339
*1650 FILLER_30_35
*1651 FILLER_30_354
*1652 FILLER_30_386
*1653 FILLER_30_393
*1654 FILLER_30_400
*1655 FILLER_30_407
*1656 FILLER_30_42
*1657 FILLER_30_51
*1658 FILLER_30_58
*1659 FILLER_30_65
*1660 FILLER_30_7
*1661 FILLER_30_72
*1662 FILLER_30_81
*1663 FILLER_30_88
*1664 FILLER_30_95
*1665 FILLER_31_0
*1666 FILLER_31_101
*1667 FILLER_31_108
*1668 FILLER_31_115
*1669 FILLER_31_122
*1670 FILLER_31_129
*1671 FILLER_31_14
*1672 FILLER_31_141