*SPEF "ieee 1481-1999"
*DESIGN "tt_ctrl"
*DATE "05:16:45 Sunday December 07, 2025"
*VENDOR "The OpenROAD Project"
*PROGRAM "OpenROAD"
*VERSION "341650e72dad0dc8571822ff8c5d9c5e365327f7"
*DESIGN_FLOW "NAME_SCOPE LOCAL" "PIN_CAP NONE"
*DIVIDER /
*DELIMITER :
*BUS_DELIMITER []
*T_UNIT 1 NS
*C_UNIT 1 PF
*R_UNIT 1 OHM
*L_UNIT 1 HENRY

*NAME_MAP
*3 ctrl_ena
*4 ctrl_sel_inc
*5 ctrl_sel_rst_n
*6 k_one
*7 k_zero
*8 pad_ui_in[0]
*9 pad_ui_in[1]
*10 pad_ui_in[2]
*11 pad_ui_in[3]
*12 pad_ui_in[4]
*13 pad_ui_in[5]
*14 pad_ui_in[6]
*15 pad_ui_in[7]
*16 pad_ui_in[8]
*17 pad_ui_in[9]
*18 pad_uio_in[0]
*19 pad_uio_in[1]
*20 pad_uio_in[2]
*21 pad_uio_in[3]
*22 pad_uio_in[4]
*23 pad_uio_in[5]
*24 pad_uio_in[6]
*25 pad_uio_in[7]
*26 uio_oe_obuf_I\[0\]\.z
*27 uio_oe_obuf_I\[1\]\.z
*28 uio_oe_obuf_I\[2\]\.z
*29 uio_oe_obuf_I\[3\]\.z
*30 uio_oe_obuf_I\[4\]\.z
*31 uio_oe_obuf_I\[5\]\.z
*32 uio_oe_obuf_I\[6\]\.z
*33 uio_oe_obuf_I\[7\]\.z
*34 uio_out_obuf_I\[0\]\.z
*35 uio_out_obuf_I\[1\]\.z
*36 uio_out_obuf_I\[2\]\.z
*37 uio_out_obuf_I\[3\]\.z
*38 uio_out_obuf_I\[4\]\.z
*39 uio_out_obuf_I\[5\]\.z
*40 uio_out_obuf_I\[6\]\.z
*41 uio_out_obuf_I\[7\]\.z
*42 uo_out_obuf_I\[0\]\.z
*43 uo_out_obuf_I\[1\]\.z
*44 uo_out_obuf_I\[2\]\.z
*45 uo_out_obuf_I\[3\]\.z
*46 uo_out_obuf_I\[4\]\.z
*47 uo_out_obuf_I\[5\]\.z
*48 uo_out_obuf_I\[6\]\.z
*49 uo_out_obuf_I\[7\]\.z
*50 genblk2\[0\]\.tie_guard_I\[0\]\.lo
*51 genblk2\[0\]\.sel_cnt_buf_I\[8\]\.z
*52 genblk2\[0\]\.pad_ui_in_buf_I\[0\]\.z
*53 genblk2\[0\]\.pad_ui_in_buf_I\[1\]\.z
*54 genblk2\[0\]\.pad_ui_in_buf_I\[2\]\.z
*55 genblk2\[0\]\.pad_ui_in_buf_I\[3\]\.z
*56 genblk2\[0\]\.pad_ui_in_buf_I\[4\]\.z
*57 genblk2\[0\]\.pad_ui_in_buf_I\[5\]\.z
*58 genblk2\[0\]\.pad_ui_in_buf_I\[6\]\.z
*59 genblk2\[0\]\.pad_ui_in_buf_I\[7\]\.z
*60 genblk2\[0\]\.pad_ui_in_buf_I\[8\]\.z
*61 genblk2\[0\]\.ctrl_ena_buf_I\.z
*62 genblk2\[0\]\.pad_ui_in_buf_I\[9\]\.z
*63 genblk2\[0\]\.pad_uio_in_buf_I\[0\]\.z
*64 genblk2\[0\]\.pad_uio_in_buf_I\[1\]\.z
*65 genblk2\[0\]\.pad_uio_in_buf_I\[2\]\.z
*66 genblk2\[0\]\.pad_uio_in_buf_I\[3\]\.z
*67 genblk2\[0\]\.pad_uio_in_buf_I\[4\]\.z
*68 genblk2\[0\]\.pad_uio_in_buf_I\[5\]\.z
*69 genblk2\[0\]\.pad_uio_in_buf_I\[6\]\.z
*70 genblk2\[0\]\.pad_uio_in_buf_I\[7\]\.z
*71 genblk2\[0\]\.tie_guard_I\[1\]\.lo
*72 genblk2\[0\]\.sel_cnt_buf_I\[0\]\.z
*73 genblk2\[0\]\.sel_cnt_buf_I\[1\]\.z
*74 genblk2\[0\]\.sel_cnt_buf_I\[2\]\.z
*75 genblk2\[0\]\.sel_cnt_buf_I\[3\]\.z
*76 genblk2\[0\]\.sel_cnt_buf_I\[4\]\.z
*77 genblk2\[0\]\.sel_cnt_buf_I\[5\]\.z
*78 genblk2\[0\]\.sel_cnt_buf_I\[6\]\.z
*79 genblk2\[0\]\.sel_cnt_buf_I\[7\]\.z
*80 spine_bot_ow[0]
*81 spine_bot_ow[10]
*82 spine_bot_ow[11]
*83 spine_bot_ow[12]
*84 spine_bot_ow[13]
*85 spine_bot_ow[14]
*86 spine_bot_ow[15]
*87 spine_bot_ow[16]
*88 spine_bot_ow[17]
*89 spine_bot_ow[18]
*90 spine_bot_ow[19]
*91 spine_bot_ow[1]
*92 spine_bot_ow[20]
*93 spine_bot_ow[21]
*94 spine_bot_ow[22]
*95 spine_bot_ow[23]
*96 spine_bot_ow[24]
*97 spine_bot_ow[25]
*98 spine_bot_ow[2]
*99 spine_bot_ow[3]
*100 spine_bot_ow[4]
*101 spine_bot_ow[5]
*102 spine_bot_ow[6]
*103 spine_bot_ow[7]
*104 spine_bot_ow[8]
*105 spine_bot_ow[9]
*106 genblk2\[1\]\.tie_guard_I\[0\]\.lo
*107 genblk2\[1\]\.sel_cnt_buf_I\[8\]\.z
*108 genblk2\[1\]\.pad_ui_in_buf_I\[0\]\.z
*109 genblk2\[1\]\.pad_ui_in_buf_I\[1\]\.z
*110 genblk2\[1\]\.pad_ui_in_buf_I\[2\]\.z
*111 genblk2\[1\]\.pad_ui_in_buf_I\[3\]\.z
*112 genblk2\[1\]\.pad_ui_in_buf_I\[4\]\.z
*113 genblk2\[1\]\.pad_ui_in_buf_I\[5\]\.z
*114 genblk2\[1\]\.pad_ui_in_buf_I\[6\]\.z
*115 genblk2\[1\]\.pad_ui_in_buf_I\[7\]\.z
*116 genblk2\[1\]\.pad_ui_in_buf_I\[8\]\.z
*117 genblk2\[1\]\.ctrl_ena_buf_I\.z
*118 genblk2\[1\]\.pad_ui_in_buf_I\[9\]\.z
*119 genblk2\[1\]\.pad_uio_in_buf_I\[0\]\.z
*120 genblk2\[1\]\.pad_uio_in_buf_I\[1\]\.z
*121 genblk2\[1\]\.pad_uio_in_buf_I\[2\]\.z
*122 genblk2\[1\]\.pad_uio_in_buf_I\[3\]\.z
*123 genblk2\[1\]\.pad_uio_in_buf_I\[4\]\.z
*124 genblk2\[1\]\.pad_uio_in_buf_I\[5\]\.z
*125 genblk2\[1\]\.pad_uio_in_buf_I\[6\]\.z
*126 genblk2\[1\]\.pad_uio_in_buf_I\[7\]\.z
*127 genblk2\[1\]\.tie_guard_I\[1\]\.lo
*128 genblk2\[1\]\.sel_cnt_buf_I\[0\]\.z
*129 genblk2\[1\]\.sel_cnt_buf_I\[1\]\.z
*130 genblk2\[1\]\.sel_cnt_buf_I\[2\]\.z
*131 genblk2\[1\]\.sel_cnt_buf_I\[3\]\.z
*132 genblk2\[1\]\.sel_cnt_buf_I\[4\]\.z
*133 genblk2\[1\]\.sel_cnt_buf_I\[5\]\.z
*134 genblk2\[1\]\.sel_cnt_buf_I\[6\]\.z
*135 genblk2\[1\]\.sel_cnt_buf_I\[7\]\.z
*136 spine_top_ow[0]
*137 spine_top_ow[10]
*138 spine_top_ow[11]
*139 spine_top_ow[12]
*140 spine_top_ow[13]
*141 spine_top_ow[14]
*142 spine_top_ow[15]
*143 spine_top_ow[16]
*144 spine_top_ow[17]
*145 spine_top_ow[18]
*146 spine_top_ow[19]
*147 spine_top_ow[1]
*148 spine_top_ow[20]
*149 spine_top_ow[21]
*150 spine_top_ow[22]
*151 spine_top_ow[23]
*152 spine_top_ow[24]
*153 spine_top_ow[25]
*154 spine_top_ow[2]
*155 spine_top_ow[3]
*156 spine_top_ow[4]
*157 spine_top_ow[5]
*158 spine_top_ow[6]
*159 spine_top_ow[7]
*160 spine_top_ow[8]
*161 spine_top_ow[9]
*162 ctrl_ena_ibuf
*163 ctrl_ibuf_I\[1\]\.z
*164 ctrl_ibuf_I\[2\]\.z
*165 genblk1\[0\]\.pull
*166 genblk1\[0\]\.tbuf_pol_spine_ow_I\.tx
*167 genblk1\[0\]\.tbuf_spine_ow_I\[0\]\.a
*168 genblk1\[1\]\.pull
*169 genblk1\[1\]\.tbuf_pol_spine_ow_I\.tx
*170 genblk1\[1\]\.tbuf_spine_ow_I\[0\]\.a
*171 genblk2\[0\]\.ctrl_ena_buf_I\.a
*172 genblk2\[0\]\.pad_ui_in_buf_I\[0\]\.genblk1\.l
*173 genblk2\[0\]\.pad_ui_in_buf_I\[1\]\.genblk1\.l
*174 genblk2\[0\]\.pad_ui_in_buf_I\[2\]\.genblk1\.l
*175 genblk2\[0\]\.pad_ui_in_buf_I\[3\]\.genblk1\.l
*176 genblk2\[0\]\.pad_ui_in_buf_I\[4\]\.genblk1\.l
*177 genblk2\[0\]\.pad_ui_in_buf_I\[5\]\.genblk1\.l
*178 genblk2\[0\]\.pad_ui_in_buf_I\[6\]\.genblk1\.l
*179 genblk2\[0\]\.pad_ui_in_buf_I\[7\]\.genblk1\.l
*180 genblk2\[0\]\.pad_ui_in_buf_I\[8\]\.genblk1\.l
*181 genblk2\[0\]\.pad_ui_in_buf_I\[9\]\.genblk1\.l
*182 genblk2\[0\]\.pad_uio_in_buf_I\[0\]\.genblk1\.l
*183 genblk2\[0\]\.pad_uio_in_buf_I\[1\]\.genblk1\.l
*184 genblk2\[0\]\.pad_uio_in_buf_I\[2\]\.genblk1\.l
*185 genblk2\[0\]\.pad_uio_in_buf_I\[3\]\.genblk1\.l
*186 genblk2\[0\]\.pad_uio_in_buf_I\[4\]\.genblk1\.l
*187 genblk2\[0\]\.pad_uio_in_buf_I\[5\]\.genblk1\.l
*188 genblk2\[0\]\.pad_uio_in_buf_I\[6\]\.genblk1\.l
*189 genblk2\[0\]\.pad_uio_in_buf_I\[7\]\.genblk1\.l
*190 genblk2\[0\]\.sel_cnt_buf_I\[0\]\.a
*191 genblk2\[0\]\.sel_cnt_buf_I\[1\]\.a
*192 genblk2\[0\]\.sel_cnt_buf_I\[2\]\.a
*193 genblk2\[0\]\.sel_cnt_buf_I\[3\]\.a
*194 genblk2\[0\]\.sel_cnt_buf_I\[4\]\.a
*195 genblk2\[0\]\.sel_cnt_buf_I\[5\]\.a
*196 genblk2\[0\]\.sel_cnt_buf_I\[6\]\.a
*197 genblk2\[0\]\.sel_cnt_buf_I\[7\]\.a
*198 genblk2\[0\]\.sel_cnt_buf_I\[8\]\.a
*199 genblk2\[1\]\.ctrl_ena_buf_I\.a
*200 genblk2\[1\]\.pad_ui_in_buf_I\[0\]\.genblk1\.l
*201 genblk2\[1\]\.pad_ui_in_buf_I\[1\]\.genblk1\.l
*202 genblk2\[1\]\.pad_ui_in_buf_I\[2\]\.genblk1\.l
*203 genblk2\[1\]\.pad_ui_in_buf_I\[3\]\.genblk1\.l
*204 genblk2\[1\]\.pad_ui_in_buf_I\[4\]\.genblk1\.l
*205 genblk2\[1\]\.pad_ui_in_buf_I\[5\]\.genblk1\.l
*206 genblk2\[1\]\.pad_ui_in_buf_I\[6\]\.genblk1\.l
*207 genblk2\[1\]\.pad_ui_in_buf_I\[7\]\.genblk1\.l
*208 genblk2\[1\]\.pad_ui_in_buf_I\[8\]\.genblk1\.l
*209 genblk2\[1\]\.pad_ui_in_buf_I\[9\]\.genblk1\.l
*210 genblk2\[1\]\.pad_uio_in_buf_I\[0\]\.genblk1\.l
*211 genblk2\[1\]\.pad_uio_in_buf_I\[1\]\.genblk1\.l
*212 genblk2\[1\]\.pad_uio_in_buf_I\[2\]\.genblk1\.l
*213 genblk2\[1\]\.pad_uio_in_buf_I\[3\]\.genblk1\.l
*214 genblk2\[1\]\.pad_uio_in_buf_I\[4\]\.genblk1\.l
*215 genblk2\[1\]\.pad_uio_in_buf_I\[5\]\.genblk1\.l
*216 genblk2\[1\]\.pad_uio_in_buf_I\[6\]\.genblk1\.l
*217 genblk2\[1\]\.pad_uio_in_buf_I\[7\]\.genblk1\.l
*218 sel_cnt_gen\[0\]\.cnt_bit_I\.d
*219 sel_cnt_gen\[1\]\.cnt_bit_I\.d
*220 sel_cnt_gen\[2\]\.cnt_bit_I\.d
*221 sel_cnt_gen\[3\]\.cnt_bit_I\.d
*222 sel_cnt_gen\[4\]\.cnt_bit_I\.d
*223 sel_cnt_gen\[5\]\.cnt_bit_I\.d
*224 sel_cnt_gen\[5\]\.cnt_bit_I\.q
*225 sel_cnt_gen\[6\]\.cnt_bit_I\.d
*226 sel_cnt_gen\[7\]\.cnt_bit_I\.d
*227 sel_cnt_gen\[8\]\.cnt_bit_I\.d
*228 sel_cnt_gen\[9\]\.cnt_bit_I\.d
*229 side_ena0_buf_I\.a
*230 side_ena0_buf_I\.genblk1\.l
*231 side_ena1_buf_I\.genblk1\.l
*232 side_sel
*233 uio_oe_obuf_I\[0\]\.a
*234 uio_oe_obuf_I\[1\]\.a
*235 uio_oe_obuf_I\[2\]\.a
*236 uio_oe_obuf_I\[3\]\.a
*237 uio_oe_obuf_I\[4\]\.a
*238 uio_oe_obuf_I\[5\]\.a
*239 uio_oe_obuf_I\[6\]\.a
*240 uio_oe_obuf_I\[7\]\.a
*241 uio_oex_ibuf_I\[0\]\.z
*242 uio_oex_ibuf_I\[10\]\.z
*243 uio_oex_ibuf_I\[11\]\.z
*244 uio_oex_ibuf_I\[12\]\.z
*245 uio_oex_ibuf_I\[13\]\.z
*246 uio_oex_ibuf_I\[14\]\.z
*247 uio_oex_ibuf_I\[15\]\.z
*248 uio_oex_ibuf_I\[1\]\.z
*249 uio_oex_ibuf_I\[2\]\.z
*250 uio_oex_ibuf_I\[3\]\.z
*251 uio_oex_ibuf_I\[4\]\.z
*252 uio_oex_ibuf_I\[5\]\.z
*253 uio_oex_ibuf_I\[6\]\.z
*254 uio_oex_ibuf_I\[7\]\.z
*255 uio_oex_ibuf_I\[8\]\.z
*256 uio_oex_ibuf_I\[9\]\.z
*257 uio_out_ibuf_I\[0\]\.z
*258 uio_out_ibuf_I\[10\]\.z
*259 uio_out_ibuf_I\[11\]\.z
*260 uio_out_ibuf_I\[12\]\.z
*261 uio_out_ibuf_I\[13\]\.z
*262 uio_out_ibuf_I\[14\]\.z
*263 uio_out_ibuf_I\[15\]\.z
*264 uio_out_ibuf_I\[1\]\.z
*265 uio_out_ibuf_I\[2\]\.z
*266 uio_out_ibuf_I\[3\]\.z
*267 uio_out_ibuf_I\[4\]\.z
*268 uio_out_ibuf_I\[5\]\.z
*269 uio_out_ibuf_I\[6\]\.z
*270 uio_out_ibuf_I\[7\]\.z
*271 uio_out_ibuf_I\[8\]\.z
*272 uio_out_ibuf_I\[9\]\.z
*273 uio_out_mux_I\[0\]\.x
*274 uio_out_mux_I\[1\]\.x
*275 uio_out_mux_I\[2\]\.x
*276 uio_out_mux_I\[3\]\.x
*277 uio_out_mux_I\[4\]\.x
*278 uio_out_mux_I\[5\]\.x
*279 uio_out_mux_I\[6\]\.x
*280 uio_out_mux_I\[7\]\.x
*281 uo_out_ibuf_I\[0\]\.z
*282 uo_out_ibuf_I\[10\]\.z
*283 uo_out_ibuf_I\[11\]\.z
*284 uo_out_ibuf_I\[12\]\.z
*285 uo_out_ibuf_I\[13\]\.z
*286 uo_out_ibuf_I\[14\]\.z
*287 uo_out_ibuf_I\[15\]\.z
*288 uo_out_ibuf_I\[1\]\.z
*289 uo_out_ibuf_I\[2\]\.z
*290 uo_out_ibuf_I\[3\]\.z
*291 uo_out_ibuf_I\[4\]\.z
*292 uo_out_ibuf_I\[5\]\.z
*293 uo_out_ibuf_I\[6\]\.z
*294 uo_out_ibuf_I\[7\]\.z
*295 uo_out_ibuf_I\[8\]\.z
*296 uo_out_ibuf_I\[9\]\.z
*297 uo_out_mux_I\[0\]\.x
*298 uo_out_mux_I\[1\]\.x
*299 uo_out_mux_I\[2\]\.x
*300 uo_out_mux_I\[3\]\.x
*301 uo_out_mux_I\[4\]\.x
*302 uo_out_mux_I\[5\]\.x
*303 uo_out_mux_I\[6\]\.x
*304 uo_out_mux_I\[7\]\.x
*305 FILLER_0_0
*306 FILLER_0_110
*307 FILLER_0_117
*308 FILLER_0_134
*309 FILLER_0_14
*310 FILLER_0_141
*311 FILLER_0_148
*312 FILLER_0_155
*313 FILLER_0_162
*314 FILLER_0_173
*315 FILLER_0_180
*316 FILLER_0_187
*317 FILLER_0_21
*318 FILLER_0_28
*319 FILLER_0_32
*320 FILLER_0_36
*321 FILLER_0_43
*322 FILLER_0_50
*323 FILLER_0_57
*324 FILLER_0_61
*325 FILLER_0_65
*326 FILLER_0_7
*327 FILLER_0_70
*328 FILLER_0_74
*329 FILLER_0_79
*330 FILLER_0_83
*331 FILLER_0_90
*332 FILLER_10_0
*333 FILLER_10_119
*334 FILLER_10_126
*335 FILLER_10_133
*336 FILLER_10_14
*337 FILLER_10_140
*338 FILLER_10_157
*339 FILLER_10_164
*340 FILLER_10_171
*341 FILLER_10_178
*342 FILLER_10_185
*343 FILLER_10_187
*344 FILLER_10_21
*345 FILLER_10_28
*346 FILLER_10_35
*347 FILLER_10_42
*348 FILLER_10_49
*349 FILLER_10_56
*350 FILLER_10_63
*351 FILLER_10_7
*352 FILLER_10_70
*353 FILLER_10_77
*354 FILLER_10_79
*355 FILLER_10_88
*356 FILLER_10_95
*357 FILLER_10_99
*358 FILLER_11_0
*359 FILLER_11_106
*360 FILLER_11_113
*361 FILLER_11_14
*362 FILLER_11_150
*363 FILLER_11_157
*364 FILLER_11_164
*365 FILLER_11_171
*366 FILLER_11_178
*367 FILLER_11_185
*368 FILLER_11_187
*369 FILLER_11_21
*370 FILLER_11_28
*371 FILLER_11_44
*372 FILLER_11_51
*373 FILLER_11_68
*374 FILLER_11_7
*375 FILLER_11_75
*376 FILLER_11_80
*377 FILLER_11_84
*378 FILLER_11_91
*379 FILLER_11_93
*380 FILLER_12_0
*381 FILLER_12_104
*382 FILLER_12_11
*383 FILLER_12_111
*384 FILLER_12_118
*385 FILLER_12_125
*386 FILLER_12_132
*387 FILLER_12_139
*388 FILLER_12_143
*389 FILLER_12_15
*390 FILLER_12_157
*391 FILLER_12_164
*392 FILLER_12_171
*393 FILLER_12_178
*394 FILLER_12_185
*395 FILLER_12_187
*396 FILLER_12_20
*397 FILLER_12_52
*398 FILLER_12_56
*399 FILLER_12_7
*400 FILLER_12_73
*401 FILLER_12_80
*402 FILLER_12_97
*403 FILLER_13_0
*404 FILLER_13_106
*405 FILLER_13_108
*406 FILLER_13_14
*407 FILLER_13_165
*408 FILLER_13_172
*409 FILLER_13_179
*410 FILLER_13_18
*411 FILLER_13_186
*412 FILLER_13_35
*413 FILLER_13_39
*414 FILLER_13_55
*415 FILLER_13_57
*416 FILLER_13_7
*417 FILLER_13_99
*418 FILLER_14_0
*419 FILLER_14_100
*420 FILLER_14_107
*421 FILLER_14_109
*422 FILLER_14_116
*423 FILLER_14_130
*424 FILLER_14_137
*425 FILLER_14_14
*426 FILLER_14_144
*427 FILLER_14_151
*428 FILLER_14_158
*429 FILLER_14_165
*430 FILLER_14_172
*431 FILLER_14_179
*432 FILLER_14_186
*433 FILLER_14_21
*434 FILLER_14_28
*435 FILLER_14_35
*436 FILLER_14_42
*437 FILLER_14_49
*438 FILLER_14_56
*439 FILLER_14_63
*440 FILLER_14_7
*441 FILLER_14_70
*442 FILLER_14_77
*443 FILLER_14_79
*444 FILLER_14_86
*445 FILLER_14_93
*446 FILLER_15_0
*447 FILLER_15_121
*448 FILLER_15_128
*449 FILLER_15_135
*450 FILLER_15_14
*451 FILLER_15_142
*452 FILLER_15_149
*453 FILLER_15_156
*454 FILLER_15_163
*455 FILLER_15_170
*456 FILLER_15_177
*457 FILLER_15_18
*458 FILLER_15_184
*459 FILLER_15_22
*460 FILLER_15_29
*461 FILLER_15_33
*462 FILLER_15_38
*463 FILLER_15_48
*464 FILLER_15_53
*465 FILLER_15_60
*466 FILLER_15_67
*467 FILLER_15_69
*468 FILLER_15_7
*469 FILLER_15_74
*470 FILLER_15_76
*471 FILLER_15_87
*472 FILLER_15_94
*473 FILLER_16_0
*474 FILLER_16_106
*475 FILLER_16_113
*476 FILLER_16_120
*477 FILLER_16_127
*478 FILLER_16_134
*479 FILLER_16_14
*480 FILLER_16_141
*481 FILLER_16_158
*482 FILLER_16_165
*483 FILLER_16_172
*484 FILLER_16_179
*485 FILLER_16_186
*486 FILLER_16_19
*487 FILLER_16_30
*488 FILLER_16_38
*489 FILLER_16_43
*490 FILLER_16_48
*491 FILLER_16_52
*492 FILLER_16_57
*493 FILLER_16_59
*494 FILLER_16_63
*495 FILLER_16_65
*496 FILLER_16_69
*497 FILLER_16_7
*498 FILLER_16_76
*499 FILLER_16_83
*500 FILLER_16_90
*501 FILLER_16_92
*502 FILLER_17_0
*503 FILLER_17_102
*504 FILLER_17_109
*505 FILLER_17_116
*506 FILLER_17_14
*507 FILLER_17_163
*508 FILLER_17_170
*509 FILLER_17_177
*510 FILLER_17_18
*511 FILLER_17_184
*512 FILLER_17_24
*513 FILLER_17_32
*514 FILLER_17_39
*515 FILLER_17_51
*516 FILLER_17_53
*517 FILLER_17_62
*518 FILLER_17_69
*519 FILLER_17_7
*520 FILLER_17_76
*521 FILLER_17_83
*522 FILLER_17_95
*523 FILLER_18_0
*524 FILLER_18_105
*525 FILLER_18_109
*526 FILLER_18_14
*527 FILLER_18_154
*528 FILLER_18_161
*529 FILLER_18_168
*530 FILLER_18_175
*531 FILLER_18_182
*532 FILLER_18_186
*533 FILLER_18_21
*534 FILLER_18_27
*535 FILLER_18_34
*536 FILLER_18_41
*537 FILLER_18_48
*538 FILLER_18_53
*539 FILLER_18_60
*540 FILLER_18_67
*541 FILLER_18_7
*542 FILLER_18_72
*543 FILLER_18_98
*544 FILLER_19_0
*545 FILLER_19_125
*546 FILLER_19_132
*547 FILLER_19_139
*548 FILLER_19_14
*549 FILLER_19_146
*550 FILLER_19_153
*551 FILLER_19_160
*552 FILLER_19_167
*553 FILLER_19_174
*554 FILLER_19_181
*555 FILLER_19_21
*556 FILLER_19_28
*557 FILLER_19_35
*558 FILLER_19_39
*559 FILLER_19_45
*560 FILLER_19_7
*561 FILLER_1_0
*562 FILLER_1_112
*563 FILLER_1_132
*564 FILLER_1_139
*565 FILLER_1_141
*566 FILLER_1_159
*567 FILLER_1_161
*568 FILLER_1_182
*569 FILLER_1_186
*570 FILLER_1_46
*571 FILLER_1_50
*572 FILLER_1_66
*573 FILLER_1_81
*574 FILLER_1_91
*575 FILLER_1_96
*576 FILLER_1_98
*577 FILLER_20_0
*578 FILLER_20_102
*579 FILLER_20_109
*580 FILLER_20_116
*581 FILLER_20_123
*582 FILLER_20_130
*583 FILLER_20_132
*584 FILLER_20_14
*585 FILLER_20_146
*586 FILLER_20_153
*587 FILLER_20_160
*588 FILLER_20_167
*589 FILLER_20_174
*590 FILLER_20_181
*591 FILLER_20_21
*592 FILLER_20_46
*593 FILLER_20_53
*594 FILLER_20_57
*595 FILLER_20_7
*596 FILLER_20_88
*597 FILLER_20_95
*598 FILLER_21_0
*599 FILLER_21_11
*600 FILLER_21_133
*601 FILLER_21_140
*602 FILLER_21_147
*603 FILLER_21_154
*604 FILLER_21_161
*605 FILLER_21_168
*606 FILLER_21_175
*607 FILLER_21_182
*608 FILLER_21_186
*609 FILLER_21_31
*610 FILLER_21_52
*611 FILLER_21_54
*612 FILLER_21_7
*613 FILLER_21_70
*614 FILLER_21_89
*615 FILLER_21_96
*616 FILLER_22_0
*617 FILLER_22_100
*618 FILLER_22_107
*619 FILLER_22_114
*620 FILLER_22_121
*621 FILLER_22_128
*622 FILLER_22_135
*623 FILLER_22_14
*624 FILLER_22_152
*625 FILLER_22_159
*626 FILLER_22_166
*627 FILLER_22_173
*628 FILLER_22_180
*629 FILLER_22_187
*630 FILLER_22_21
*631 FILLER_22_28
*632 FILLER_22_35
*633 FILLER_22_39
*634 FILLER_22_44
*635 FILLER_22_51
*636 FILLER_22_58
*637 FILLER_22_65
*638 FILLER_22_7
*639 FILLER_22_72
*640 FILLER_22_79
*641 FILLER_22_86
*642 FILLER_22_93
*643 FILLER_23_0
*644 FILLER_23_101
*645 FILLER_23_108
*646 FILLER_23_115
*647 FILLER_23_122
*648 FILLER_23_129
*649 FILLER_23_14
*650 FILLER_23_149
*651 FILLER_23_156
*652 FILLER_23_163
*653 FILLER_23_170
*654 FILLER_23_177
*655 FILLER_23_184
*656 FILLER_23_36
*657 FILLER_23_40
*658 FILLER_23_52
*659 FILLER_23_59
*660 FILLER_23_66
*661 FILLER_23_7
*662 FILLER_23_73
*663 FILLER_23_80
*664 FILLER_23_87
*665 FILLER_23_94
*666 FILLER_24_0
*667 FILLER_24_103
*668 FILLER_24_107
*669 FILLER_24_14
*670 FILLER_24_171
*671 FILLER_24_178
*672 FILLER_24_185
*673 FILLER_24_187
*674 FILLER_24_21
*675 FILLER_24_25
*676 FILLER_24_55
*677 FILLER_24_59
*678 FILLER_24_63
*679 FILLER_24_68
*680 FILLER_24_7
*681 FILLER_24_72
*682 FILLER_24_89
*683 FILLER_24_96
*684 FILLER_25_0
*685 FILLER_25_14
*686 FILLER_25_143
*687 FILLER_25_150
*688 FILLER_25_157
*689 FILLER_25_164
*690 FILLER_25_171
*691 FILLER_25_178
*692 FILLER_25_185
*693 FILLER_25_187
*694 FILLER_25_21
*695 FILLER_25_28
*696 FILLER_25_35
*697 FILLER_25_42
*698 FILLER_25_47
*699 FILLER_25_54
*700 FILLER_25_61
*701 FILLER_25_65
*702 FILLER_25_7
*703 FILLER_25_70
*704 FILLER_25_75
*705 FILLER_25_82
*706 FILLER_25_86
*707 FILLER_26_0
*708 FILLER_26_126
*709 FILLER_26_133
*710 FILLER_26_14
*711 FILLER_26_140
*712 FILLER_26_147
*713 FILLER_26_154
*714 FILLER_26_161
*715 FILLER_26_168
*716 FILLER_26_175
*717 FILLER_26_182
*718 FILLER_26_186
*719 FILLER_26_21
*720 FILLER_26_28
*721 FILLER_26_35
*722 FILLER_26_46
*723 FILLER_26_68
*724 FILLER_26_7
*725 FILLER_26_93
*726 FILLER_26_95
*727 FILLER_27_0
*728 FILLER_27_104
*729 FILLER_27_111
*730 FILLER_27_118
*731 FILLER_27_125
*732 FILLER_27_132
*733 FILLER_27_134
*734 FILLER_27_14
*735 FILLER_27_148
*736 FILLER_27_155
*737 FILLER_27_159
*738 FILLER_27_170
*739 FILLER_27_177
*740 FILLER_27_184
*741 FILLER_27_28
*742 FILLER_27_32
*743 FILLER_27_49
*744 FILLER_27_7
*745 FILLER_27_83
*746 FILLER_27_90
*747 FILLER_27_97
*748 FILLER_28_0
*749 FILLER_28_102
*750 FILLER_28_106
*751 FILLER_28_114
*752 FILLER_28_121
*753 FILLER_28_128
*754 FILLER_28_132
*755 FILLER_28_146
*756 FILLER_28_153
*757 FILLER_28_165
*758 FILLER_28_172
*759 FILLER_28_179
*760 FILLER_28_186
*761 FILLER_28_33
*762 FILLER_28_40
*763 FILLER_28_42
*764 FILLER_28_47
*765 FILLER_28_54
*766 FILLER_28_61
*767 FILLER_28_7
*768 FILLER_28_72
*769 FILLER_28_79
*770 FILLER_28_86
*771 FILLER_28_93
*772 FILLER_28_95
*773 FILLER_29_0
*774 FILLER_29_126
*775 FILLER_29_128
*776 FILLER_29_14
*777 FILLER_29_165
*778 FILLER_29_172
*779 FILLER_29_179
*780 FILLER_29_186
*781 FILLER_29_21
*782 FILLER_29_25
*783 FILLER_29_42
*784 FILLER_29_58
*785 FILLER_29_62
*786 FILLER_29_68
*787 FILLER_29_7
*788 FILLER_29_75
*789 FILLER_29_83
*790 FILLER_29_90
*791 FILLER_2_0
*792 FILLER_2_105
*793 FILLER_2_112
*794 FILLER_2_122
*795 FILLER_2_135
*796 FILLER_2_137
*797 FILLER_2_14
*798 FILLER_2_151
*799 FILLER_2_158
*800 FILLER_2_165
*801 FILLER_2_172
*802 FILLER_2_179
*803 FILLER_2_186
*804 FILLER_2_21
*805 FILLER_2_32
*806 FILLER_2_49
*807 FILLER_2_7
*808 FILLER_2_92
*809 FILLER_30_0
*810 FILLER_30_106
*811 FILLER_30_108
*812 FILLER_30_122
*813 FILLER_30_139
*814 FILLER_30_14
*815 FILLER_30_146
*816 FILLER_30_153
*817 FILLER_30_160
*818 FILLER_30_167
*819 FILLER_30_174
*820 FILLER_30_181
*821 FILLER_30_21
*822 FILLER_30_27
*823 FILLER_30_34
*824 FILLER_30_41
*825 FILLER_30_48
*826 FILLER_30_60
*827 FILLER_30_7
*828 FILLER_30_77
*829 FILLER_30_92
*830 FILLER_30_99
*831 FILLER_31_0
*832 FILLER_31_106
*833 FILLER_31_120
*834 FILLER_31_127
*835 FILLER_31_134
*836 FILLER_31_141
*837 FILLER_31_148
*838 FILLER_31_150
*839 FILLER_31_161
*840 FILLER_31_165
*841 FILLER_31_176
*842 FILLER_31_183
*843 FILLER_31_187
*844 FILLER_31_39
*845 FILLER_31_7
*846 FILLER_31_84
*847 FILLER_31_91
*848 FILLER_31_93
*849 FILLER_32_0
*850 FILLER_32_105
*851 FILLER_32_112
*852 FILLER_32_119
*853 FILLER_32_126
*854 FILLER_32_133
*855 FILLER_32_14
*856 FILLER_32_140
*857 FILLER_32_142
*858 FILLER_32_149
*859 FILLER_32_156
*860 FILLER_32_173
*861 FILLER_32_180
*862 FILLER_32_187
*863 FILLER_32_21
*864 FILLER_32_28
*865 FILLER_32_47
*866 FILLER_32_54
*867 FILLER_32_61
*868 FILLER_32_68
*869 FILLER_32_7
*870 FILLER_32_73
*871 FILLER_32_80
*872 FILLER_32_87
*873 FILLER_32_91
*874 FILLER_33_0
*875 FILLER_33_106
*876 FILLER_33_110
*877 FILLER_33_118
*878 FILLER_33_120
*879 FILLER_33_134
*880 FILLER_33_14
*881 FILLER_33_141
*882 FILLER_33_155
*883 FILLER_33_162
*884 FILLER_33_169
*885 FILLER_33_176
*886 FILLER_33_183
*887 FILLER_33_187
*888 FILLER_33_21
*889 FILLER_33_28
*890 FILLER_33_35
*891 FILLER_33_42
*892 FILLER_33_49
*893 FILLER_33_56
*894 FILLER_33_63
*895 FILLER_33_7
*896 FILLER_33_70
*897 FILLER_33_78
*898 FILLER_33_85
*899 FILLER_33_92
*900 FILLER_33_99
*901 FILLER_34_0
*902 FILLER_34_11
*903 FILLER_34_112
*904 FILLER_34_116
*905 FILLER_34_130
*906 FILLER_34_137
*907 FILLER_34_144
*908 FILLER_34_151
*909 FILLER_34_158
*910 FILLER_34_165
*911 FILLER_34_172
*912 FILLER_34_179
*913 FILLER_34_186
*914 FILLER_34_27
*915 FILLER_34_34
*916 FILLER_34_50
*917 FILLER_34_7
*918 FILLER_34_87
*919 FILLER_34_91
*920 FILLER_35_0
*921 FILLER_35_100
*922 FILLER_35_107
*923 FILLER_35_114
*924 FILLER_35_116
*925 FILLER_35_123
*926 FILLER_35_130
*927 FILLER_35_143
*928 FILLER_35_164
*929 FILLER_35_171
*930 FILLER_35_182
*931 FILLER_35_186
*932 FILLER_35_28
*933 FILLER_35_35
*934 FILLER_35_39
*935 FILLER_35_55
*936 FILLER_35_67
*937 FILLER_35_7
*938 FILLER_35_74
*939 FILLER_35_79
*940 FILLER_35_86
*941 FILLER_35_93
*942 FILLER_36_0
*943 FILLER_36_103
*944 FILLER_36_118
*945 FILLER_36_122
*946 FILLER_36_14
*947 FILLER_36_150
*948 FILLER_36_170
*949 FILLER_36_172
*950 FILLER_36_183
*951 FILLER_36_187
*952 FILLER_36_31
*953 FILLER_36_39
*954 FILLER_36_43
*955 FILLER_36_48
*956 FILLER_36_65
*957 FILLER_36_7
*958 FILLER_36_72
*959 FILLER_36_79
*960 FILLER_36_83
*961 FILLER_37_0
*962 FILLER_37_115
*963 FILLER_37_135
*964 FILLER_37_142
*965 FILLER_37_161
*966 FILLER_37_168
*967 FILLER_37_179
*968 FILLER_37_186
*969 FILLER_37_31
*970 FILLER_37_51
*971 FILLER_37_55
*972 FILLER_37_57
*973 FILLER_37_7
*974 FILLER_37_98
*975 FILLER_38_0
*976 FILLER_38_106
*977 FILLER_38_113
*978 FILLER_38_117
*979 FILLER_38_125
*980 FILLER_38_132
*981 FILLER_38_139
*982 FILLER_38_14
*983 FILLER_38_146
*984 FILLER_38_153
*985 FILLER_38_160
*986 FILLER_38_167
*987 FILLER_38_174
*988 FILLER_38_181
*989 FILLER_38_21
*990 FILLER_38_28
*991 FILLER_38_38
*992 FILLER_38_43
*993 FILLER_38_50
*994 FILLER_38_57
*995 FILLER_38_64
*996 FILLER_38_7
*997 FILLER_38_71
*998 FILLER_38_78
*999 FILLER_38_82
*1000 FILLER_38_86
*1001 FILLER_38_94
*1002 FILLER_38_98
*1003 FILLER_3_0
*1004 FILLER_3_10
*1005 FILLER_3_103
*1006 FILLER_3_110
*1007 FILLER_3_117
*1008 FILLER_3_124
*1009 FILLER_3_131
*1010 FILLER_3_166
*1011 FILLER_3_17
*1012 FILLER_3_173
*1013 FILLER_3_180
*1014 FILLER_3_187
*1015 FILLER_3_24
*1016 FILLER_3_36
*1017 FILLER_3_43
*1018 FILLER_3_47
*1019 FILLER_3_63
*1020 FILLER_3_67
*1021 FILLER_3_73
*1022 FILLER_3_77
*1023 FILLER_3_82
*1024 FILLER_3_89
*1025 FILLER_3_96
*1026 FILLER_4_0
*1027 FILLER_4_100
*1028 FILLER_4_107
*1029 FILLER_4_134
*1030 FILLER_4_138
*1031 FILLER_4_14
*1032 FILLER_4_146
*1033 FILLER_4_153
*1034 FILLER_4_167
*1035 FILLER_4_171
*1036 FILLER_4_175
*1037 FILLER_4_182
*1038 FILLER_4_186
*1039 FILLER_4_21
*1040 FILLER_4_28
*1041 FILLER_4_30
*1042 FILLER_4_34
*1043 FILLER_4_41
*1044 FILLER_4_48
*1045 FILLER_4_55
*1046 FILLER_4_62
*1047 FILLER_4_64
*1048 FILLER_4_7
*1049 FILLER_4_80
*1050 FILLER_4_84
*1051 FILLER_5_0
*1052 FILLER_5_10
*1053 FILLER_5_104
*1054 FILLER_5_124
*1055 FILLER_5_131
*1056 FILLER_5_138
*1057 FILLER_5_155
*1058 FILLER_5_162
*1059 FILLER_5_169
*1060 FILLER_5_17
*1061 FILLER_5_176
*1062 FILLER_5_181
*1063 FILLER_5_24
*1064 FILLER_5_41
*1065 FILLER_5_48
*1066 FILLER_5_55
*1067 FILLER_5_62
*1068 FILLER_5_69
*1069 FILLER_5_76
*1070 FILLER_5_83
*1071 FILLER_5_90
*1072 FILLER_5_97
*1073 FILLER_6_0
*1074 FILLER_6_112
*1075 FILLER_6_119
*1076 FILLER_6_126
*1077 FILLER_6_133
*1078 FILLER_6_14
*1079 FILLER_6_150
*1080 FILLER_6_157
*1081 FILLER_6_171
*1082 FILLER_6_178
*1083 FILLER_6_185
*1084 FILLER_6_187
*1085 FILLER_6_21
*1086 FILLER_6_28
*1087 FILLER_6_35
*1088 FILLER_6_37
*1089 FILLER_6_53
*1090 FILLER_6_60
*1091 FILLER_6_7
*1092 FILLER_6_76
*1093 FILLER_6_80
*1094 FILLER_6_85
*1095 FILLER_6_97
*1096 FILLER_6_99
*1097 FILLER_7_0
*1098 FILLER_7_101
*1099 FILLER_7_108
*1100 FILLER_7_11
*1101 FILLER_7_145
*1102 FILLER_7_152
*1103 FILLER_7_159
*1104 FILLER_7_170
*1105 FILLER_7_177
*1106 FILLER_7_18
*1107 FILLER_7_184
*1108 FILLER_7_49
*1109 FILLER_7_53
*1110 FILLER_7_60
*1111 FILLER_7_7
*1112 FILLER_7_79
*1113 FILLER_7_83
*1114 FILLER_7_94
*1115 FILLER_8_0
*1116 FILLER_8_104
*1117 FILLER_8_111
*1118 FILLER_8_118
*1119 FILLER_8_125
*1120 FILLER_8_132
*1121 FILLER_8_14
*1122 FILLER_8_155
*1123 FILLER_8_169
*1124 FILLER_8_176
*1125 FILLER_8_183
*1126 FILLER_8_187
*1127 FILLER_8_21
*1128 FILLER_8_26
*1129 FILLER_8_33
*1130 FILLER_8_40
*1131 FILLER_8_47
*1132 FILLER_8_63
*1133 FILLER_8_7
*1134 FILLER_8_80
*1135 FILLER_8_82
*1136 FILLER_8_97
*1137 FILLER_9_0
*1138 FILLER_9_102
*1139 FILLER_9_130
*1140 FILLER_9_137
*1141 FILLER_9_14
*1142 FILLER_9_144
*1143 FILLER_9_151
*1144 FILLER_9_158
*1145 FILLER_9_165
*1146 FILLER_9_169
*1147 FILLER_9_176
*1148 FILLER_9_183
*1149 FILLER_9_187
*1150 FILLER_9_36
*1151 FILLER_9_43
*1152 FILLER_9_62
*1153 FILLER_9_69
*1154 FILLER_9_7
*1155 FILLER_9_76
*1156 FILLER_9_87
*1157 FILLER_9_98
*1158 _0_
*1159 _1_
*1160 ctrl_diode_I\[0\]\.cell0_I
*1161 ctrl_diode_I\[1\]\.cell0_I
*1162 ctrl_diode_I\[2\]\.cell0_I
*1163 ctrl_ibuf_I\[0\]\.genblk1\.cell0_I
*1164 ctrl_ibuf_I\[1\]\.genblk1\.cell0_I
*1165 ctrl_ibuf_I\[2\]\.genblk1\.cell0_I
*1166 genblk1\[0\]\.tbuf_pol_spine_ow_I\.cell0_I
*1167 genblk1\[0\]\.tbuf_spine_ow_I\[0\]\.genblk1\.cell0_I
*1168 genblk1\[0\]\.tbuf_spine_ow_I\[10\]\.genblk1\.cell0_I
*1169 genblk1\[0\]\.tbuf_spine_ow_I\[11\]\.genblk1\.cell0_I
*1170 genblk1\[0\]\.tbuf_spine_ow_I\[12\]\.genblk1\.cell0_I
*1171 genblk1\[0\]\.tbuf_spine_ow_I\[13\]\.genblk1\.cell0_I
*1172 genblk1\[0\]\.tbuf_spine_ow_I\[14\]\.genblk1\.cell0_I
*1173 genblk1\[0\]\.tbuf_spine_ow_I\[15\]\.genblk1\.cell0_I
*1174 genblk1\[0\]\.tbuf_spine_ow_I\[16\]\.genblk1\.cell0_I
*1175 genblk1\[0\]\.tbuf_spine_ow_I\[17\]\.genblk1\.cell0_I
*1176 genblk1\[0\]\.tbuf_spine_ow_I\[18\]\.genblk1\.cell0_I
*1177 genblk1\[0\]\.tbuf_spine_ow_I\[19\]\.genblk1\.cell0_I
*1178 genblk1\[0\]\.tbuf_spine_ow_I\[1\]\.genblk1\.cell0_I
*1179 genblk1\[0\]\.tbuf_spine_ow_I\[20\]\.genblk1\.cell0_I
*1180 genblk1\[0\]\.tbuf_spine_ow_I\[21\]\.genblk1\.cell0_I
*1181 genblk1\[0\]\.tbuf_spine_ow_I\[22\]\.genblk1\.cell0_I
*1182 genblk1\[0\]\.tbuf_spine_ow_I\[23\]\.genblk1\.cell0_I
*1183 genblk1\[0\]\.tbuf_spine_ow_I\[2\]\.genblk1\.cell0_I
*1184 genblk1\[0\]\.tbuf_spine_ow_I\[3\]\.genblk1\.cell0_I
*1185 genblk1\[0\]\.tbuf_spine_ow_I\[4\]\.genblk1\.cell0_I
*1186 genblk1\[0\]\.tbuf_spine_ow_I\[5\]\.genblk1\.cell0_I
*1187 genblk1\[0\]\.tbuf_spine_ow_I\[6\]\.genblk1\.cell0_I
*1188 genblk1\[0\]\.tbuf_spine_ow_I\[7\]\.genblk1\.cell0_I
*1189 genblk1\[0\]\.tbuf_spine_ow_I\[8\]\.genblk1\.cell0_I
*1190 genblk1\[0\]\.tbuf_spine_ow_I\[9\]\.genblk1\.cell0_I
*1191 genblk1\[0\]\.tie_I\.genblk1\.cell0_I
*1192 genblk1\[1\]\.tbuf_pol_spine_ow_I\.cell0_I
*1193 genblk1\[1\]\.tbuf_spine_ow_I\[0\]\.genblk1\.cell0_I
*1194 genblk1\[1\]\.tbuf_spine_ow_I\[10\]\.genblk1\.cell0_I
*1195 genblk1\[1\]\.tbuf_spine_ow_I\[11\]\.genblk1\.cell0_I
*1196 genblk1\[1\]\.tbuf_spine_ow_I\[12\]\.genblk1\.cell0_I
*1197 genblk1\[1\]\.tbuf_spine_ow_I\[13\]\.genblk1\.cell0_I
*1198 genblk1\[1\]\.tbuf_spine_ow_I\[14\]\.genblk1\.cell0_I
*1199 genblk1\[1\]\.tbuf_spine_ow_I\[15\]\.genblk1\.cell0_I
*1200 genblk1\[1\]\.tbuf_spine_ow_I\[16\]\.genblk1\.cell0_I
*1201 genblk1\[1\]\.tbuf_spine_ow_I\[17\]\.genblk1\.cell0_I
*1202 genblk1\[1\]\.tbuf_spine_ow_I\[18\]\.genblk1\.cell0_I
*1203 genblk1\[1\]\.tbuf_spine_ow_I\[19\]\.genblk1\.cell0_I
*1204 genblk1\[1\]\.tbuf_spine_ow_I\[1\]\.genblk1\.cell0_I
*1205 genblk1\[1\]\.tbuf_spine_ow_I\[20\]\.genblk1\.cell0_I
*1206 genblk1\[1\]\.tbuf_spine_ow_I\[21\]\.genblk1\.cell0_I
*1207 genblk1\[1\]\.tbuf_spine_ow_I\[22\]\.genblk1\.cell0_I
*1208 genblk1\[1\]\.tbuf_spine_ow_I\[23\]\.genblk1\.cell0_I
*1209 genblk1\[1\]\.tbuf_spine_ow_I\[2\]\.genblk1\.cell0_I
*1210 genblk1\[1\]\.tbuf_spine_ow_I\[3\]\.genblk1\.cell0_I
*1211 genblk1\[1\]\.tbuf_spine_ow_I\[4\]\.genblk1\.cell0_I
*1212 genblk1\[1\]\.tbuf_spine_ow_I\[5\]\.genblk1\.cell0_I
*1213 genblk1\[1\]\.tbuf_spine_ow_I\[6\]\.genblk1\.cell0_I
*1214 genblk1\[1\]\.tbuf_spine_ow_I\[7\]\.genblk1\.cell0_I
*1215 genblk1\[1\]\.tbuf_spine_ow_I\[8\]\.genblk1\.cell0_I
*1216 genblk1\[1\]\.tbuf_spine_ow_I\[9\]\.genblk1\.cell0_I
*1217 genblk1\[1\]\.tie_I\.genblk1\.cell0_I
*1218 genblk2\[0\]\.ctrl_ena_buf_I\.genblk1\.cell0_I
*1219 genblk2\[0\]\.pad_ui_in_buf_I\[0\]\.genblk1\.cell0_I
*1220 genblk2\[0\]\.pad_ui_in_buf_I\[0\]\.genblk1\.cell1_I
*1221 genblk2\[0\]\.pad_ui_in_buf_I\[1\]\.genblk1\.cell0_I
*1222 genblk2\[0\]\.pad_ui_in_buf_I\[1\]\.genblk1\.cell1_I
*1223 genblk2\[0\]\.pad_ui_in_buf_I\[2\]\.genblk1\.cell0_I
*1224 genblk2\[0\]\.pad_ui_in_buf_I\[2\]\.genblk1\.cell1_I
*1225 genblk2\[0\]\.pad_ui_in_buf_I\[3\]\.genblk1\.cell0_I
*1226 genblk2\[0\]\.pad_ui_in_buf_I\[3\]\.genblk1\.cell1_I
*1227 genblk2\[0\]\.pad_ui_in_buf_I\[4\]\.genblk1\.cell0_I
*1228 genblk2\[0\]\.pad_ui_in_buf_I\[4\]\.genblk1\.cell1_I
*1229 genblk2\[0\]\.pad_ui_in_buf_I\[5\]\.genblk1\.cell0_I
*1230 genblk2\[0\]\.pad_ui_in_buf_I\[5\]\.genblk1\.cell1_I
*1231 genblk2\[0\]\.pad_ui_in_buf_I\[6\]\.genblk1\.cell0_I
*1232 genblk2\[0\]\.pad_ui_in_buf_I\[6\]\.genblk1\.cell1_I
*1233 genblk2\[0\]\.pad_ui_in_buf_I\[7\]\.genblk1\.cell0_I
*1234 genblk2\[0\]\.pad_ui_in_buf_I\[7\]\.genblk1\.cell1_I