*SPEF "ieee 1481-1999"
*DESIGN "tt_mux"
*DATE "05:18:00 Sunday December 07, 2025"
*VENDOR "The OpenROAD Project"
*PROGRAM "OpenROAD"
*VERSION "341650e72dad0dc8571822ff8c5d9c5e365327f7"
*DESIGN_FLOW "NAME_SCOPE LOCAL" "PIN_CAP NONE"
*DIVIDER /
*DELIMITER :
*BUS_DELIMITER []
*T_UNIT 1 NS
*C_UNIT 1 PF
*R_UNIT 1 OHM
*L_UNIT 1 HENRY

*NAME_MAP
*3 addr[0]
*4 addr[1]
*5 addr[2]
*6 addr[3]
*7 k_one
*8 k_zero
*9 spine_iw[0]
*10 spine_iw[10]
*11 spine_iw[11]
*12 spine_iw[12]
*13 spine_iw[13]
*14 spine_iw[14]
*15 spine_iw[15]
*16 spine_iw[16]
*17 spine_iw[17]
*18 spine_iw[18]
*19 spine_iw[19]
*20 spine_iw[1]
*21 spine_iw[20]
*22 spine_iw[21]
*23 spine_iw[22]
*24 spine_iw[23]
*25 spine_iw[24]
*26 spine_iw[25]
*27 spine_iw[26]
*28 spine_iw[27]
*29 spine_iw[28]
*30 spine_iw[29]
*31 spine_iw[2]
*32 spine_iw[3]
*33 spine_iw[4]
*34 spine_iw[5]
*35 spine_iw[6]
*36 spine_iw[7]
*37 spine_iw[8]
*38 spine_iw[9]
*39 so_gl
*40 tbuf_spine_ow_I\[9\]\.z
*41 tbuf_spine_ow_I\[10\]\.z
*42 tbuf_spine_ow_I\[11\]\.z
*43 tbuf_spine_ow_I\[12\]\.z
*44 tbuf_spine_ow_I\[13\]\.z
*45 tbuf_spine_ow_I\[14\]\.z
*46 tbuf_spine_ow_I\[15\]\.z
*47 tbuf_spine_ow_I\[16\]\.z
*48 tbuf_spine_ow_I\[17\]\.z
*49 tbuf_spine_ow_I\[18\]\.z
*50 tbuf_spine_ow_I\[0\]\.z
*51 tbuf_spine_ow_I\[19\]\.z
*52 tbuf_spine_ow_I\[20\]\.z
*53 tbuf_spine_ow_I\[21\]\.z
*54 tbuf_spine_ow_I\[22\]\.z
*55 tbuf_spine_ow_I\[23\]\.z
*56 so_gh
*57 tbuf_spine_ow_I\[1\]\.z
*58 tbuf_spine_ow_I\[2\]\.z
*59 tbuf_spine_ow_I\[3\]\.z
*60 tbuf_spine_ow_I\[4\]\.z
*61 tbuf_spine_ow_I\[5\]\.z
*62 tbuf_spine_ow_I\[6\]\.z
*63 tbuf_spine_ow_I\[7\]\.z
*64 tbuf_spine_ow_I\[8\]\.z
*65 block\[0\]\.zbuf_ena_I\.z
*66 block\[10\]\.zbuf_ena_I\.z
*67 block\[11\]\.zbuf_ena_I\.z
*68 block\[1\]\.zbuf_ena_I\.z
*69 block\[2\]\.zbuf_ena_I\.z
*70 block\[3\]\.zbuf_ena_I\.z
*71 block\[4\]\.zbuf_ena_I\.z
*72 block\[5\]\.zbuf_ena_I\.z
*73 block\[6\]\.zbuf_ena_I\.z
*74 block\[7\]\.zbuf_ena_I\.z
*75 block\[8\]\.zbuf_ena_I\.z
*76 block\[9\]\.zbuf_ena_I\.z
*77 block\[0\]\.zbuf_iw_I\[0\]\.z
*78 block\[5\]\.zbuf_iw_I\[10\]\.z
*79 block\[5\]\.zbuf_iw_I\[11\]\.z
*80 block\[5\]\.zbuf_iw_I\[12\]\.z
*81 block\[5\]\.zbuf_iw_I\[13\]\.z
*82 block\[5\]\.zbuf_iw_I\[14\]\.z
*83 block\[5\]\.zbuf_iw_I\[15\]\.z
*84 block\[5\]\.zbuf_iw_I\[16\]\.z
*85 block\[5\]\.zbuf_iw_I\[17\]\.z
*86 block\[6\]\.zbuf_iw_I\[0\]\.z
*87 block\[6\]\.zbuf_iw_I\[1\]\.z
*88 block\[0\]\.zbuf_iw_I\[10\]\.z
*89 block\[6\]\.zbuf_iw_I\[2\]\.z
*90 block\[6\]\.zbuf_iw_I\[3\]\.z
*91 block\[6\]\.zbuf_iw_I\[4\]\.z
*92 block\[6\]\.zbuf_iw_I\[5\]\.z
*93 block\[6\]\.zbuf_iw_I\[6\]\.z
*94 block\[6\]\.zbuf_iw_I\[7\]\.z
*95 block\[6\]\.zbuf_iw_I\[8\]\.z
*96 block\[6\]\.zbuf_iw_I\[9\]\.z
*97 block\[6\]\.zbuf_iw_I\[10\]\.z
*98 block\[6\]\.zbuf_iw_I\[11\]\.z
*99 block\[0\]\.zbuf_iw_I\[11\]\.z
*100 block\[6\]\.zbuf_iw_I\[12\]\.z
*101 block\[6\]\.zbuf_iw_I\[13\]\.z
*102 block\[6\]\.zbuf_iw_I\[14\]\.z
*103 block\[6\]\.zbuf_iw_I\[15\]\.z
*104 block\[6\]\.zbuf_iw_I\[16\]\.z
*105 block\[6\]\.zbuf_iw_I\[17\]\.z
*106 block\[7\]\.zbuf_iw_I\[0\]\.z
*107 block\[7\]\.zbuf_iw_I\[1\]\.z
*108 block\[7\]\.zbuf_iw_I\[2\]\.z
*109 block\[7\]\.zbuf_iw_I\[3\]\.z
*110 block\[0\]\.zbuf_iw_I\[12\]\.z
*111 block\[7\]\.zbuf_iw_I\[4\]\.z
*112 block\[7\]\.zbuf_iw_I\[5\]\.z
*113 block\[7\]\.zbuf_iw_I\[6\]\.z
*114 block\[7\]\.zbuf_iw_I\[7\]\.z
*115 block\[7\]\.zbuf_iw_I\[8\]\.z
*116 block\[7\]\.zbuf_iw_I\[9\]\.z
*117 block\[7\]\.zbuf_iw_I\[10\]\.z
*118 block\[7\]\.zbuf_iw_I\[11\]\.z
*119 block\[7\]\.zbuf_iw_I\[12\]\.z
*120 block\[7\]\.zbuf_iw_I\[13\]\.z
*121 block\[0\]\.zbuf_iw_I\[13\]\.z
*122 block\[7\]\.zbuf_iw_I\[14\]\.z
*123 block\[7\]\.zbuf_iw_I\[15\]\.z
*124 block\[7\]\.zbuf_iw_I\[16\]\.z
*125 block\[7\]\.zbuf_iw_I\[17\]\.z
*126 block\[8\]\.zbuf_iw_I\[0\]\.z
*127 block\[8\]\.zbuf_iw_I\[1\]\.z
*128 block\[8\]\.zbuf_iw_I\[2\]\.z
*129 block\[8\]\.zbuf_iw_I\[3\]\.z
*130 block\[8\]\.zbuf_iw_I\[4\]\.z
*131 block\[8\]\.zbuf_iw_I\[5\]\.z
*132 block\[0\]\.zbuf_iw_I\[14\]\.z
*133 block\[8\]\.zbuf_iw_I\[6\]\.z
*134 block\[8\]\.zbuf_iw_I\[7\]\.z
*135 block\[8\]\.zbuf_iw_I\[8\]\.z
*136 block\[8\]\.zbuf_iw_I\[9\]\.z
*137 block\[8\]\.zbuf_iw_I\[10\]\.z
*138 block\[8\]\.zbuf_iw_I\[11\]\.z
*139 block\[8\]\.zbuf_iw_I\[12\]\.z
*140 block\[8\]\.zbuf_iw_I\[13\]\.z
*141 block\[8\]\.zbuf_iw_I\[14\]\.z
*142 block\[8\]\.zbuf_iw_I\[15\]\.z
*143 block\[0\]\.zbuf_iw_I\[15\]\.z
*144 block\[8\]\.zbuf_iw_I\[16\]\.z
*145 block\[8\]\.zbuf_iw_I\[17\]\.z
*146 block\[9\]\.zbuf_iw_I\[0\]\.z
*147 block\[9\]\.zbuf_iw_I\[1\]\.z
*148 block\[9\]\.zbuf_iw_I\[2\]\.z
*149 block\[9\]\.zbuf_iw_I\[3\]\.z
*150 block\[9\]\.zbuf_iw_I\[4\]\.z
*151 block\[9\]\.zbuf_iw_I\[5\]\.z
*152 block\[9\]\.zbuf_iw_I\[6\]\.z
*153 block\[9\]\.zbuf_iw_I\[7\]\.z
*154 block\[0\]\.zbuf_iw_I\[16\]\.z
*155 block\[9\]\.zbuf_iw_I\[8\]\.z
*156 block\[9\]\.zbuf_iw_I\[9\]\.z
*157 block\[9\]\.zbuf_iw_I\[10\]\.z
*158 block\[9\]\.zbuf_iw_I\[11\]\.z
*159 block\[9\]\.zbuf_iw_I\[12\]\.z
*160 block\[9\]\.zbuf_iw_I\[13\]\.z
*161 block\[9\]\.zbuf_iw_I\[14\]\.z
*162 block\[9\]\.zbuf_iw_I\[15\]\.z
*163 block\[9\]\.zbuf_iw_I\[16\]\.z
*164 block\[9\]\.zbuf_iw_I\[17\]\.z
*165 block\[0\]\.zbuf_iw_I\[17\]\.z
*166 block\[10\]\.zbuf_iw_I\[0\]\.z
*167 block\[10\]\.zbuf_iw_I\[1\]\.z
*168 block\[10\]\.zbuf_iw_I\[2\]\.z
*169 block\[10\]\.zbuf_iw_I\[3\]\.z
*170 block\[10\]\.zbuf_iw_I\[4\]\.z
*171 block\[10\]\.zbuf_iw_I\[5\]\.z
*172 block\[10\]\.zbuf_iw_I\[6\]\.z
*173 block\[10\]\.zbuf_iw_I\[7\]\.z
*174 block\[10\]\.zbuf_iw_I\[8\]\.z
*175 block\[10\]\.zbuf_iw_I\[9\]\.z
*176 block\[1\]\.zbuf_iw_I\[0\]\.z
*177 block\[10\]\.zbuf_iw_I\[10\]\.z
*178 block\[10\]\.zbuf_iw_I\[11\]\.z
*179 block\[10\]\.zbuf_iw_I\[12\]\.z
*180 block\[10\]\.zbuf_iw_I\[13\]\.z
*181 block\[10\]\.zbuf_iw_I\[14\]\.z
*182 block\[10\]\.zbuf_iw_I\[15\]\.z
*183 block\[10\]\.zbuf_iw_I\[16\]\.z
*184 block\[10\]\.zbuf_iw_I\[17\]\.z
*185 block\[11\]\.zbuf_iw_I\[0\]\.z
*186 block\[11\]\.zbuf_iw_I\[1\]\.z
*187 block\[1\]\.zbuf_iw_I\[1\]\.z
*188 block\[0\]\.zbuf_iw_I\[1\]\.z
*189 block\[11\]\.zbuf_iw_I\[2\]\.z
*190 block\[11\]\.zbuf_iw_I\[3\]\.z
*191 block\[11\]\.zbuf_iw_I\[4\]\.z
*192 block\[11\]\.zbuf_iw_I\[5\]\.z
*193 block\[11\]\.zbuf_iw_I\[6\]\.z
*194 block\[11\]\.zbuf_iw_I\[7\]\.z
*195 block\[11\]\.zbuf_iw_I\[8\]\.z
*196 block\[11\]\.zbuf_iw_I\[9\]\.z
*197 block\[11\]\.zbuf_iw_I\[10\]\.z
*198 block\[11\]\.zbuf_iw_I\[11\]\.z
*199 block\[1\]\.zbuf_iw_I\[2\]\.z
*200 block\[11\]\.zbuf_iw_I\[12\]\.z
*201 block\[11\]\.zbuf_iw_I\[13\]\.z
*202 block\[11\]\.zbuf_iw_I\[14\]\.z
*203 block\[11\]\.zbuf_iw_I\[15\]\.z
*204 block\[11\]\.zbuf_iw_I\[16\]\.z
*205 block\[11\]\.zbuf_iw_I\[17\]\.z
*206 block\[1\]\.zbuf_iw_I\[3\]\.z
*207 block\[1\]\.zbuf_iw_I\[4\]\.z
*208 block\[1\]\.zbuf_iw_I\[5\]\.z
*209 block\[1\]\.zbuf_iw_I\[6\]\.z
*210 block\[1\]\.zbuf_iw_I\[7\]\.z
*211 block\[1\]\.zbuf_iw_I\[8\]\.z
*212 block\[1\]\.zbuf_iw_I\[9\]\.z
*213 block\[1\]\.zbuf_iw_I\[10\]\.z
*214 block\[1\]\.zbuf_iw_I\[11\]\.z
*215 block\[0\]\.zbuf_iw_I\[2\]\.z
*216 block\[1\]\.zbuf_iw_I\[12\]\.z
*217 block\[1\]\.zbuf_iw_I\[13\]\.z
*218 block\[1\]\.zbuf_iw_I\[14\]\.z
*219 block\[1\]\.zbuf_iw_I\[15\]\.z
*220 block\[1\]\.zbuf_iw_I\[16\]\.z
*221 block\[1\]\.zbuf_iw_I\[17\]\.z
*222 block\[2\]\.zbuf_iw_I\[0\]\.z
*223 block\[2\]\.zbuf_iw_I\[1\]\.z
*224 block\[2\]\.zbuf_iw_I\[2\]\.z
*225 block\[2\]\.zbuf_iw_I\[3\]\.z
*226 block\[0\]\.zbuf_iw_I\[3\]\.z
*227 block\[2\]\.zbuf_iw_I\[4\]\.z
*228 block\[2\]\.zbuf_iw_I\[5\]\.z
*229 block\[2\]\.zbuf_iw_I\[6\]\.z
*230 block\[2\]\.zbuf_iw_I\[7\]\.z
*231 block\[2\]\.zbuf_iw_I\[8\]\.z
*232 block\[2\]\.zbuf_iw_I\[9\]\.z
*233 block\[2\]\.zbuf_iw_I\[10\]\.z
*234 block\[2\]\.zbuf_iw_I\[11\]\.z
*235 block\[2\]\.zbuf_iw_I\[12\]\.z
*236 block\[2\]\.zbuf_iw_I\[13\]\.z
*237 block\[0\]\.zbuf_iw_I\[4\]\.z
*238 block\[2\]\.zbuf_iw_I\[14\]\.z
*239 block\[2\]\.zbuf_iw_I\[15\]\.z
*240 block\[2\]\.zbuf_iw_I\[16\]\.z
*241 block\[2\]\.zbuf_iw_I\[17\]\.z
*242 block\[3\]\.zbuf_iw_I\[0\]\.z
*243 block\[3\]\.zbuf_iw_I\[1\]\.z
*244 block\[3\]\.zbuf_iw_I\[2\]\.z
*245 block\[3\]\.zbuf_iw_I\[3\]\.z
*246 block\[3\]\.zbuf_iw_I\[4\]\.z
*247 block\[3\]\.zbuf_iw_I\[5\]\.z
*248 block\[0\]\.zbuf_iw_I\[5\]\.z
*249 block\[3\]\.zbuf_iw_I\[6\]\.z
*250 block\[3\]\.zbuf_iw_I\[7\]\.z
*251 block\[3\]\.zbuf_iw_I\[8\]\.z
*252 block\[3\]\.zbuf_iw_I\[9\]\.z
*253 block\[3\]\.zbuf_iw_I\[10\]\.z
*254 block\[3\]\.zbuf_iw_I\[11\]\.z
*255 block\[3\]\.zbuf_iw_I\[12\]\.z
*256 block\[3\]\.zbuf_iw_I\[13\]\.z
*257 block\[3\]\.zbuf_iw_I\[14\]\.z
*258 block\[3\]\.zbuf_iw_I\[15\]\.z
*259 block\[0\]\.zbuf_iw_I\[6\]\.z
*260 block\[3\]\.zbuf_iw_I\[16\]\.z
*261 block\[3\]\.zbuf_iw_I\[17\]\.z
*262 block\[4\]\.zbuf_iw_I\[0\]\.z
*263 block\[4\]\.zbuf_iw_I\[1\]\.z
*264 block\[4\]\.zbuf_iw_I\[2\]\.z
*265 block\[4\]\.zbuf_iw_I\[3\]\.z
*266 block\[4\]\.zbuf_iw_I\[4\]\.z
*267 block\[4\]\.zbuf_iw_I\[5\]\.z
*268 block\[4\]\.zbuf_iw_I\[6\]\.z
*269 block\[4\]\.zbuf_iw_I\[7\]\.z
*270 block\[0\]\.zbuf_iw_I\[7\]\.z
*271 block\[4\]\.zbuf_iw_I\[8\]\.z
*272 block\[4\]\.zbuf_iw_I\[9\]\.z
*273 block\[4\]\.zbuf_iw_I\[10\]\.z
*274 block\[4\]\.zbuf_iw_I\[11\]\.z
*275 block\[4\]\.zbuf_iw_I\[12\]\.z
*276 block\[4\]\.zbuf_iw_I\[13\]\.z
*277 block\[4\]\.zbuf_iw_I\[14\]\.z
*278 block\[4\]\.zbuf_iw_I\[15\]\.z
*279 block\[4\]\.zbuf_iw_I\[16\]\.z
*280 block\[4\]\.zbuf_iw_I\[17\]\.z
*281 block\[0\]\.zbuf_iw_I\[8\]\.z
*282 block\[5\]\.zbuf_iw_I\[0\]\.z
*283 block\[5\]\.zbuf_iw_I\[1\]\.z
*284 block\[5\]\.zbuf_iw_I\[2\]\.z
*285 block\[5\]\.zbuf_iw_I\[3\]\.z
*286 block\[5\]\.zbuf_iw_I\[4\]\.z
*287 block\[5\]\.zbuf_iw_I\[5\]\.z
*288 block\[5\]\.zbuf_iw_I\[6\]\.z
*289 block\[5\]\.zbuf_iw_I\[7\]\.z
*290 block\[5\]\.zbuf_iw_I\[8\]\.z
*291 block\[5\]\.zbuf_iw_I\[9\]\.z
*292 block\[0\]\.zbuf_iw_I\[9\]\.z
*293 block\[0\]\.tie_I\.lo
*294 block\[10\]\.tie_I\.lo
*295 block\[11\]\.tie_I\.lo
*296 block\[1\]\.tie_I\.lo
*297 block\[2\]\.tie_I\.lo
*298 block\[3\]\.tie_I\.lo
*299 block\[4\]\.tie_I\.lo
*300 block\[5\]\.tie_I\.lo
*301 block\[6\]\.tie_I\.lo
*302 block\[7\]\.tie_I\.lo
*303 block\[8\]\.tie_I\.lo
*304 block\[9\]\.tie_I\.lo
*305 um_ow[0]
*306 um_ow[100]
*307 um_ow[101]
*308 um_ow[102]
*309 um_ow[103]
*310 um_ow[104]
*311 um_ow[105]
*312 um_ow[106]
*313 um_ow[107]
*314 um_ow[108]
*315 um_ow[109]
*316 um_ow[10]
*317 um_ow[110]
*318 um_ow[111]
*319 um_ow[112]
*320 um_ow[113]
*321 um_ow[114]
*322 um_ow[115]
*323 um_ow[116]
*324 um_ow[117]
*325 um_ow[118]
*326 um_ow[119]
*327 um_ow[11]
*328 um_ow[120]
*329 um_ow[121]
*330 um_ow[122]
*331 um_ow[123]
*332 um_ow[124]
*333 um_ow[125]
*334 um_ow[126]
*335 um_ow[127]
*336 um_ow[128]
*337 um_ow[129]
*338 um_ow[12]
*339 um_ow[130]
*340 um_ow[131]
*341 um_ow[132]
*342 um_ow[133]
*343 um_ow[134]
*344 um_ow[135]
*345 um_ow[136]
*346 um_ow[137]
*347 um_ow[138]
*348 um_ow[139]
*349 um_ow[13]
*350 um_ow[140]
*351 um_ow[141]
*352 um_ow[142]
*353 um_ow[143]
*354 um_ow[144]
*355 um_ow[145]
*356 um_ow[146]
*357 um_ow[147]
*358 um_ow[148]
*359 um_ow[149]
*360 um_ow[14]
*361 um_ow[150]
*362 um_ow[151]
*363 um_ow[152]
*364 um_ow[153]
*365 um_ow[154]
*366 um_ow[155]
*367 um_ow[156]
*368 um_ow[157]
*369 um_ow[158]
*370 um_ow[159]
*371 um_ow[15]
*372 um_ow[160]
*373 um_ow[161]
*374 um_ow[162]
*375 um_ow[163]
*376 um_ow[164]
*377 um_ow[165]
*378 um_ow[166]
*379 um_ow[167]
*380 um_ow[168]
*381 um_ow[169]
*382 um_ow[16]
*383 um_ow[170]
*384 um_ow[171]
*385 um_ow[172]
*386 um_ow[173]
*387 um_ow[174]
*388 um_ow[175]
*389 um_ow[176]
*390 um_ow[177]
*391 um_ow[178]
*392 um_ow[179]
*393 um_ow[17]
*394 um_ow[180]
*395 um_ow[181]
*396 um_ow[182]
*397 um_ow[183]
*398 um_ow[184]
*399 um_ow[185]
*400 um_ow[186]
*401 um_ow[187]
*402 um_ow[188]
*403 um_ow[189]
*404 um_ow[18]
*405 um_ow[190]
*406 um_ow[191]
*407 um_ow[192]
*408 um_ow[193]
*409 um_ow[194]
*410 um_ow[195]
*411 um_ow[196]
*412 um_ow[197]
*413 um_ow[198]
*414 um_ow[199]
*415 um_ow[19]
*416 um_ow[1]
*417 um_ow[200]
*418 um_ow[201]
*419 um_ow[202]
*420 um_ow[203]
*421 um_ow[204]
*422 um_ow[205]
*423 um_ow[206]
*424 um_ow[207]
*425 um_ow[208]
*426 um_ow[209]
*427 um_ow[20]
*428 um_ow[210]
*429 um_ow[211]
*430 um_ow[212]
*431 um_ow[213]
*432 um_ow[214]
*433 um_ow[215]
*434 um_ow[216]
*435 um_ow[217]
*436 um_ow[218]
*437 um_ow[219]
*438 um_ow[21]
*439 um_ow[220]
*440 um_ow[221]
*441 um_ow[222]
*442 um_ow[223]
*443 um_ow[224]
*444 um_ow[225]
*445 um_ow[226]
*446 um_ow[227]
*447 um_ow[228]
*448 um_ow[229]
*449 um_ow[22]
*450 um_ow[230]
*451 um_ow[231]
*452 um_ow[232]
*453 um_ow[233]
*454 um_ow[234]
*455 um_ow[235]
*456 um_ow[236]
*457 um_ow[237]
*458 um_ow[238]
*459 um_ow[239]
*460 um_ow[23]
*461 um_ow[240]
*462 um_ow[241]
*463 um_ow[242]
*464 um_ow[243]
*465 um_ow[244]
*466 um_ow[245]
*467 um_ow[246]
*468 um_ow[247]
*469 um_ow[248]
*470 um_ow[249]
*471 um_ow[24]
*472 um_ow[250]
*473 um_ow[251]
*474 um_ow[252]
*475 um_ow[253]
*476 um_ow[254]
*477 um_ow[255]
*478 um_ow[256]
*479 um_ow[257]
*480 um_ow[258]
*481 um_ow[259]
*482 um_ow[25]
*483 um_ow[260]
*484 um_ow[261]
*485 um_ow[262]
*486 um_ow[263]
*487 um_ow[264]
*488 um_ow[265]
*489 um_ow[266]
*490 um_ow[267]
*491 um_ow[268]
*492 um_ow[269]
*493 um_ow[26]
*494 um_ow[270]
*495 um_ow[271]
*496 um_ow[272]
*497 um_ow[273]
*498 um_ow[274]
*499 um_ow[275]
*500 um_ow[276]
*501 um_ow[277]
*502 um_ow[278]
*503 um_ow[279]
*504 um_ow[27]
*505 um_ow[280]
*506 um_ow[281]
*507 um_ow[282]
*508 um_ow[283]
*509 um_ow[284]
*510 um_ow[285]
*511 um_ow[286]
*512 um_ow[287]
*513 um_ow[28]
*514 um_ow[29]
*515 um_ow[2]
*516 um_ow[30]
*517 um_ow[31]
*518 um_ow[32]
*519 um_ow[33]
*520 um_ow[34]
*521 um_ow[35]
*522 um_ow[36]
*523 um_ow[37]
*524 um_ow[38]
*525 um_ow[39]
*526 um_ow[3]
*527 um_ow[40]
*528 um_ow[41]
*529 um_ow[42]
*530 um_ow[43]
*531 um_ow[44]
*532 um_ow[45]
*533 um_ow[46]
*534 um_ow[47]
*535 um_ow[48]
*536 um_ow[49]
*537 um_ow[4]
*538 um_ow[50]
*539 um_ow[51]
*540 um_ow[52]
*541 um_ow[53]
*542 um_ow[54]
*543 um_ow[55]
*544 um_ow[56]
*545 um_ow[57]
*546 um_ow[58]
*547 um_ow[59]
*548 um_ow[5]
*549 um_ow[60]
*550 um_ow[61]
*551 um_ow[62]
*552 um_ow[63]
*553 um_ow[64]
*554 um_ow[65]
*555 um_ow[66]
*556 um_ow[67]
*557 um_ow[68]
*558 um_ow[69]
*559 um_ow[6]
*560 um_ow[70]
*561 um_ow[71]
*562 um_ow[72]
*563 um_ow[73]
*564 um_ow[74]
*565 um_ow[75]
*566 um_ow[76]
*567 um_ow[77]
*568 um_ow[78]
*569 um_ow[79]
*570 um_ow[7]
*571 um_ow[80]
*572 um_ow[81]
*573 um_ow[82]
*574 um_ow[83]
*575 um_ow[84]
*576 um_ow[85]
*577 um_ow[86]
*578 um_ow[87]
*579 um_ow[88]
*580 um_ow[89]
*581 um_ow[8]
*582 um_ow[90]
*583 um_ow[91]
*584 um_ow[92]
*585 um_ow[93]
*586 um_ow[94]
*587 um_ow[95]
*588 um_ow[96]
*589 um_ow[97]
*590 um_ow[98]
*591 um_ow[99]
*592 um_ow[9]
*593 block\[0\]\.zbuf_pg_ena_I\.z
*594 block\[10\]\.zbuf_pg_ena_I\.z
*595 block\[11\]\.zbuf_pg_ena_I\.z
*596 block\[1\]\.zbuf_pg_ena_I\.z
*597 block\[2\]\.zbuf_pg_ena_I\.z
*598 block\[3\]\.zbuf_pg_ena_I\.z
*599 block\[4\]\.zbuf_pg_ena_I\.z
*600 block\[5\]\.zbuf_pg_ena_I\.z
*601 block\[6\]\.zbuf_pg_ena_I\.z
*602 block\[7\]\.zbuf_pg_ena_I\.z
*603 block\[8\]\.zbuf_pg_ena_I\.z
*604 block\[9\]\.zbuf_pg_ena_I\.z
*605 _00_
*606 _01_
*607 _02_
*608 _03_
*609 _04_
*610 _05_
*611 _06_
*612 _07_
*613 _08_
*614 _09_
*615 _10_
*616 _11_
*617 _12_
*618 _13_
*619 block\[0\]\.genblk1\.grp_sel_buf_I\.a
*620 block\[0\]\.genblk1\.grp_sel_buf_I\.z
*621 block\[0\]\.genblk1\.l_tbe
*622 block\[0\]\.genblk1\.mux4_I\[0\]\.x
*623 block\[0\]\.genblk1\.mux4_I\[10\]\.x
*624 block\[0\]\.genblk1\.mux4_I\[11\]\.x
*625 block\[0\]\.genblk1\.mux4_I\[12\]\.x
*626 block\[0\]\.genblk1\.mux4_I\[13\]\.x
*627 block\[0\]\.genblk1\.mux4_I\[14\]\.x
*628 block\[0\]\.genblk1\.mux4_I\[15\]\.x
*629 block\[0\]\.genblk1\.mux4_I\[16\]\.x
*630 block\[0\]\.genblk1\.mux4_I\[17\]\.x
*631 block\[0\]\.genblk1\.mux4_I\[18\]\.x
*632 block\[0\]\.genblk1\.mux4_I\[19\]\.x
*633 block\[0\]\.genblk1\.mux4_I\[1\]\.x
*634 block\[0\]\.genblk1\.mux4_I\[20\]\.x
*635 block\[0\]\.genblk1\.mux4_I\[21\]\.x
*636 block\[0\]\.genblk1\.mux4_I\[22\]\.x
*637 block\[0\]\.genblk1\.mux4_I\[23\]\.x
*638 block\[0\]\.genblk1\.mux4_I\[2\]\.x
*639 block\[0\]\.genblk1\.mux4_I\[3\]\.x
*640 block\[0\]\.genblk1\.mux4_I\[4\]\.x
*641 block\[0\]\.genblk1\.mux4_I\[5\]\.x
*642 block\[0\]\.genblk1\.mux4_I\[6\]\.x
*643 block\[0\]\.genblk1\.mux4_I\[7\]\.x
*644 block\[0\]\.genblk1\.mux4_I\[8\]\.x
*645 block\[0\]\.genblk1\.mux4_I\[9\]\.x
*646 block\[0\]\.genblk1\.mux4_sel_buf_I\[0\]\.a
*647 block\[0\]\.genblk1\.mux4_sel_buf_I\[0\]\.z
*648 block\[0\]\.genblk1\.mux4_sel_buf_I\[1\]\.a
*649 block\[0\]\.genblk1\.mux4_sel_buf_I\[1\]\.z
*650 block\[0\]\.genblk1\.tbuf_spine_ow_I\[0\]\.z
*651 block\[0\]\.genblk1\.tbuf_spine_ow_I\[10\]\.z
*652 block\[0\]\.genblk1\.tbuf_spine_ow_I\[11\]\.z
*653 block\[0\]\.genblk1\.tbuf_spine_ow_I\[12\]\.z
*654 block\[0\]\.genblk1\.tbuf_spine_ow_I\[13\]\.z
*655 block\[0\]\.genblk1\.tbuf_spine_ow_I\[14\]\.z
*656 block\[0\]\.genblk1\.tbuf_spine_ow_I\[15\]\.z
*657 block\[0\]\.genblk1\.tbuf_spine_ow_I\[16\]\.z
*658 block\[0\]\.genblk1\.tbuf_spine_ow_I\[17\]\.z
*659 block\[0\]\.genblk1\.tbuf_spine_ow_I\[18\]\.z
*660 block\[0\]\.genblk1\.tbuf_spine_ow_I\[19\]\.z
*661 block\[0\]\.genblk1\.tbuf_spine_ow_I\[1\]\.z
*662 block\[0\]\.genblk1\.tbuf_spine_ow_I\[20\]\.z
*663 block\[0\]\.genblk1\.tbuf_spine_ow_I\[21\]\.z
*664 block\[0\]\.genblk1\.tbuf_spine_ow_I\[22\]\.z
*665 block\[0\]\.genblk1\.tbuf_spine_ow_I\[23\]\.z
*666 block\[0\]\.genblk1\.tbuf_spine_ow_I\[2\]\.z
*667 block\[0\]\.genblk1\.tbuf_spine_ow_I\[3\]\.z
*668 block\[0\]\.genblk1\.tbuf_spine_ow_I\[4\]\.z
*669 block\[0\]\.genblk1\.tbuf_spine_ow_I\[5\]\.z
*670 block\[0\]\.genblk1\.tbuf_spine_ow_I\[6\]\.z
*671 block\[0\]\.genblk1\.tbuf_spine_ow_I\[7\]\.z
*672 block\[0\]\.genblk1\.tbuf_spine_ow_I\[8\]\.z
*673 block\[0\]\.genblk1\.tbuf_spine_ow_I\[9\]\.z
*674 block\[0\]\.l_ena
*675 block\[0\]\.l_ena_0_I\.a
*676 block\[0\]\.zbuf_iw_I\[0\]\.a
*677 block\[0\]\.zbuf_iw_I\[10\]\.a
*678 block\[0\]\.zbuf_iw_I\[11\]\.a
*679 block\[0\]\.zbuf_iw_I\[12\]\.a
*680 block\[0\]\.zbuf_iw_I\[13\]\.a
*681 block\[0\]\.zbuf_iw_I\[14\]\.a
*682 block\[0\]\.zbuf_iw_I\[15\]\.a
*683 block\[0\]\.zbuf_iw_I\[16\]\.a
*684 block\[0\]\.zbuf_iw_I\[17\]\.a
*685 block\[0\]\.zbuf_iw_I\[1\]\.a
*686 block\[0\]\.zbuf_iw_I\[2\]\.a
*687 block\[0\]\.zbuf_iw_I\[3\]\.a
*688 block\[0\]\.zbuf_iw_I\[4\]\.a
*689 block\[0\]\.zbuf_iw_I\[5\]\.a
*690 block\[0\]\.zbuf_iw_I\[6\]\.a
*691 block\[0\]\.zbuf_iw_I\[7\]\.a
*692 block\[0\]\.zbuf_iw_I\[8\]\.a
*693 block\[0\]\.zbuf_iw_I\[9\]\.a
*694 block\[10\]\.l_ena
*695 block\[10\]\.l_ena_0_I\.a
*696 block\[11\]\.l_ena
*697 block\[11\]\.l_ena_0_I\.a
*698 block\[1\]\.l_ena
*699 block\[1\]\.l_ena_0_I\.a
*700 block\[2\]\.l_ena
*701 block\[2\]\.l_ena_0_I\.a
*702 block\[3\]\.l_ena
*703 block\[3\]\.l_ena_0_I\.a
*704 block\[4\]\.genblk1\.grp_sel_buf_I\.a
*705 block\[4\]\.genblk1\.grp_sel_buf_I\.z
*706 block\[4\]\.genblk1\.l_tbe
*707 block\[4\]\.genblk1\.mux4_I\[0\]\.x
*708 block\[4\]\.genblk1\.mux4_I\[10\]\.x
*709 block\[4\]\.genblk1\.mux4_I\[11\]\.x
*710 block\[4\]\.genblk1\.mux4_I\[12\]\.x
*711 block\[4\]\.genblk1\.mux4_I\[13\]\.x
*712 block\[4\]\.genblk1\.mux4_I\[14\]\.x
*713 block\[4\]\.genblk1\.mux4_I\[15\]\.x
*714 block\[4\]\.genblk1\.mux4_I\[16\]\.x
*715 block\[4\]\.genblk1\.mux4_I\[17\]\.x
*716 block\[4\]\.genblk1\.mux4_I\[18\]\.x
*717 block\[4\]\.genblk1\.mux4_I\[19\]\.x
*718 block\[4\]\.genblk1\.mux4_I\[1\]\.x
*719 block\[4\]\.genblk1\.mux4_I\[20\]\.x
*720 block\[4\]\.genblk1\.mux4_I\[21\]\.x
*721 block\[4\]\.genblk1\.mux4_I\[22\]\.x
*722 block\[4\]\.genblk1\.mux4_I\[23\]\.x
*723 block\[4\]\.genblk1\.mux4_I\[2\]\.x
*724 block\[4\]\.genblk1\.mux4_I\[3\]\.x
*725 block\[4\]\.genblk1\.mux4_I\[4\]\.x
*726 block\[4\]\.genblk1\.mux4_I\[5\]\.x
*727 block\[4\]\.genblk1\.mux4_I\[6\]\.x
*728 block\[4\]\.genblk1\.mux4_I\[7\]\.x
*729 block\[4\]\.genblk1\.mux4_I\[8\]\.x
*730 block\[4\]\.genblk1\.mux4_I\[9\]\.x
*731 block\[4\]\.genblk1\.mux4_sel_buf_I\[0\]\.z
*732 block\[4\]\.genblk1\.mux4_sel_buf_I\[1\]\.z
*733 block\[4\]\.l_ena
*734 block\[4\]\.l_ena_0_I\.a
*735 block\[5\]\.l_ena
*736 block\[5\]\.l_ena_0_I\.a
*737 block\[6\]\.l_ena
*738 block\[6\]\.l_ena_0_I\.a
*739 block\[7\]\.l_ena
*740 block\[7\]\.l_ena_0_I\.a
*741 block\[8\]\.genblk1\.grp_sel_buf_I\.a
*742 block\[8\]\.genblk1\.grp_sel_buf_I\.z
*743 block\[8\]\.genblk1\.l_tbe
*744 block\[8\]\.genblk1\.mux4_I\[0\]\.x
*745 block\[8\]\.genblk1\.mux4_I\[10\]\.x
*746 block\[8\]\.genblk1\.mux4_I\[11\]\.x
*747 block\[8\]\.genblk1\.mux4_I\[12\]\.x
*748 block\[8\]\.genblk1\.mux4_I\[13\]\.x
*749 block\[8\]\.genblk1\.mux4_I\[14\]\.x
*750 block\[8\]\.genblk1\.mux4_I\[15\]\.x
*751 block\[8\]\.genblk1\.mux4_I\[16\]\.x
*752 block\[8\]\.genblk1\.mux4_I\[17\]\.x
*753 block\[8\]\.genblk1\.mux4_I\[18\]\.x
*754 block\[8\]\.genblk1\.mux4_I\[19\]\.x
*755 block\[8\]\.genblk1\.mux4_I\[1\]\.x
*756 block\[8\]\.genblk1\.mux4_I\[20\]\.x
*757 block\[8\]\.genblk1\.mux4_I\[21\]\.x
*758 block\[8\]\.genblk1\.mux4_I\[22\]\.x
*759 block\[8\]\.genblk1\.mux4_I\[23\]\.x
*760 block\[8\]\.genblk1\.mux4_I\[2\]\.x
*761 block\[8\]\.genblk1\.mux4_I\[3\]\.x
*762 block\[8\]\.genblk1\.mux4_I\[4\]\.x
*763 block\[8\]\.genblk1\.mux4_I\[5\]\.x
*764 block\[8\]\.genblk1\.mux4_I\[6\]\.x
*765 block\[8\]\.genblk1\.mux4_I\[7\]\.x
*766 block\[8\]\.genblk1\.mux4_I\[8\]\.x
*767 block\[8\]\.genblk1\.mux4_I\[9\]\.x
*768 block\[8\]\.genblk1\.mux4_sel_buf_I\[0\]\.z
*769 block\[8\]\.genblk1\.mux4_sel_buf_I\[1\]\.z
*770 block\[8\]\.l_ena
*771 block\[8\]\.l_ena_0_I\.a
*772 block\[9\]\.l_ena
*773 block\[9\]\.l_ena_0_I\.a
*774 branch_addr_match_buf_I\[0\]\.z
*775 branch_addr_match_buf_I\[1\]\.z
*776 branch_addr_match_buf_I\[2\]\.z
*777 branch_addr_match_buf_I\[3\]\.z
*778 branch_ena_buf_I\.z
*779 branch_sel
*780 branch_sel_buf_I\.a
*781 branch_sel_n
*782 branch_sel_n_tbe
*783 branch_sel_tbe
*784 buf_bus_ena_I\.z
*785 buf_bus_sel_I\[2\]\.z
*786 buf_bus_sel_I\[3\]\.z
*787 buf_bus_sel_I\[4\]\.z
*788 buf_spine_ow_I\[0\]\.z
*789 buf_spine_ow_I\[10\]\.z
*790 buf_spine_ow_I\[11\]\.z
*791 buf_spine_ow_I\[12\]\.z
*792 buf_spine_ow_I\[13\]\.z
*793 buf_spine_ow_I\[14\]\.z
*794 buf_spine_ow_I\[15\]\.z
*795 buf_spine_ow_I\[16\]\.z
*796 buf_spine_ow_I\[17\]\.z
*797 buf_spine_ow_I\[18\]\.z
*798 buf_spine_ow_I\[19\]\.z
*799 buf_spine_ow_I\[1\]\.z
*800 buf_spine_ow_I\[20\]\.z
*801 buf_spine_ow_I\[21\]\.z
*802 buf_spine_ow_I\[22\]\.z
*803 buf_spine_ow_I\[23\]\.z
*804 buf_spine_ow_I\[2\]\.z
*805 buf_spine_ow_I\[3\]\.z
*806 buf_spine_ow_I\[4\]\.z
*807 buf_spine_ow_I\[5\]\.z
*808 buf_spine_ow_I\[6\]\.z
*809 buf_spine_ow_I\[7\]\.z
*810 buf_spine_ow_I\[8\]\.z
*811 buf_spine_ow_I\[9\]\.z
*812 bus_pull_ow_I\[0\]\.a
*813 zbuf_bus_iw_I\[0\]\.genblk1\.l
*814 zbuf_bus_iw_I\[10\]\.genblk1\.l
*815 zbuf_bus_iw_I\[11\]\.genblk1\.l
*816 zbuf_bus_iw_I\[12\]\.genblk1\.l
*817 zbuf_bus_iw_I\[13\]\.genblk1\.l
*818 zbuf_bus_iw_I\[14\]\.genblk1\.l
*819 zbuf_bus_iw_I\[15\]\.genblk1\.l
*820 zbuf_bus_iw_I\[16\]\.genblk1\.l
*821 zbuf_bus_iw_I\[17\]\.genblk1\.l
*822 zbuf_bus_iw_I\[1\]\.genblk1\.l
*823 zbuf_bus_iw_I\[2\]\.genblk1\.l
*824 zbuf_bus_iw_I\[3\]\.genblk1\.l
*825 zbuf_bus_iw_I\[4\]\.genblk1\.l
*826 zbuf_bus_iw_I\[5\]\.genblk1\.l
*827 zbuf_bus_iw_I\[6\]\.genblk1\.l
*828 zbuf_bus_iw_I\[7\]\.genblk1\.l
*829 zbuf_bus_iw_I\[8\]\.genblk1\.l
*830 zbuf_bus_iw_I\[9\]\.genblk1\.l
*831 FILLER_0_0
*832 FILLER_0_1004
*833 FILLER_0_1011
*834 FILLER_0_1018
*835 FILLER_0_1025
*836 FILLER_0_1032
*837 FILLER_0_1039
*838 FILLER_0_1046
*839 FILLER_0_105
*840 FILLER_0_1053
*841 FILLER_0_1060
*842 FILLER_0_1067
*843 FILLER_0_1074
*844 FILLER_0_1081
*845 FILLER_0_1088
*846 FILLER_0_1095
*847 FILLER_0_1102
*848 FILLER_0_1109
*849 FILLER_0_1116
*850 FILLER_0_112
*851 FILLER_0_1123
*852 FILLER_0_1130
*853 FILLER_0_1137
*854 FILLER_0_1144
*855 FILLER_0_1151
*856 FILLER_0_1158
*857 FILLER_0_1165
*858 FILLER_0_1172
*859 FILLER_0_1179
*860 FILLER_0_1186
*861 FILLER_0_119
*862 FILLER_0_1193
*863 FILLER_0_1200
*864 FILLER_0_1207
*865 FILLER_0_1214
*866 FILLER_0_1221
*867 FILLER_0_1228
*868 FILLER_0_1235
*869 FILLER_0_1237
*870 FILLER_0_1241
*871 FILLER_0_1248
*872 FILLER_0_1255
*873 FILLER_0_126
*874 FILLER_0_1262
*875 FILLER_0_1269
*876 FILLER_0_1276
*877 FILLER_0_1283
*878 FILLER_0_1290
*879 FILLER_0_1297
*880 FILLER_0_1304
*881 FILLER_0_1311
*882 FILLER_0_1318
*883 FILLER_0_1325
*884 FILLER_0_133
*885 FILLER_0_1332
*886 FILLER_0_1339
*887 FILLER_0_1346
*888 FILLER_0_1353
*889 FILLER_0_1360
*890 FILLER_0_1367
*891 FILLER_0_1374
*892 FILLER_0_1381
*893 FILLER_0_1388
*894 FILLER_0_1395
*895 FILLER_0_14
*896 FILLER_0_140
*897 FILLER_0_1402
*898 FILLER_0_1409
*899 FILLER_0_1416
*900 FILLER_0_1423
*901 FILLER_0_1430
*902 FILLER_0_1437
*903 FILLER_0_1444
*904 FILLER_0_1451
*905 FILLER_0_1458
*906 FILLER_0_1465
*907 FILLER_0_147
*908 FILLER_0_1472
*909 FILLER_0_1479
*910 FILLER_0_1486
*911 FILLER_0_1493
*912 FILLER_0_1500
*913 FILLER_0_1507
*914 FILLER_0_1514
*915 FILLER_0_1521
*916 FILLER_0_1528
*917 FILLER_0_1535
*918 FILLER_0_154
*919 FILLER_0_1542
*920 FILLER_0_1549
*921 FILLER_0_1556
*922 FILLER_0_1563
*923 FILLER_0_1570
*924 FILLER_0_1577
*925 FILLER_0_1584
*926 FILLER_0_1591
*927 FILLER_0_1598
*928 FILLER_0_1605
*929 FILLER_0_161
*930 FILLER_0_1612
*931 FILLER_0_1619
*932 FILLER_0_1626
*933 FILLER_0_1633
*934 FILLER_0_1640
*935 FILLER_0_1647
*936 FILLER_0_1654
*937 FILLER_0_1661
*938 FILLER_0_1668
*939 FILLER_0_1675
*940 FILLER_0_168
*941 FILLER_0_1682
*942 FILLER_0_1689
*943 FILLER_0_1696
*944 FILLER_0_1703
*945 FILLER_0_1710
*946 FILLER_0_1717
*947 FILLER_0_1724
*948 FILLER_0_1731
*949 FILLER_0_1738
*950 FILLER_0_1745
*951 FILLER_0_175
*952 FILLER_0_1752
*953 FILLER_0_1759
*954 FILLER_0_1766
*955 FILLER_0_1773
*956 FILLER_0_1780
*957 FILLER_0_1787
*958 FILLER_0_1794
*959 FILLER_0_1801
*960 FILLER_0_1808
*961 FILLER_0_1815
*962 FILLER_0_182
*963 FILLER_0_1822
*964 FILLER_0_1829
*965 FILLER_0_1836
*966 FILLER_0_1843
*967 FILLER_0_1850
*968 FILLER_0_1857
*969 FILLER_0_1864
*970 FILLER_0_1871
*971 FILLER_0_1878
*972 FILLER_0_1885
*973 FILLER_0_189
*974 FILLER_0_1892
*975 FILLER_0_1899
*976 FILLER_0_1906
*977 FILLER_0_1913
*978 FILLER_0_1915
*979 FILLER_0_1919
*980 FILLER_0_1926
*981 FILLER_0_1933
*982 FILLER_0_1940
*983 FILLER_0_1947
*984 FILLER_0_1954
*985 FILLER_0_196
*986 FILLER_0_1961
*987 FILLER_0_1968
*988 FILLER_0_1975
*989 FILLER_0_1982
*990 FILLER_0_1989
*991 FILLER_0_1996
*992 FILLER_0_2003
*993 FILLER_0_2010
*994 FILLER_0_2017
*995 FILLER_0_2024
*996 FILLER_0_203
*997 FILLER_0_2031
*998 FILLER_0_2038
*999 FILLER_0_2045
*1000 FILLER_0_2052
*1001 FILLER_0_2059
*1002 FILLER_0_2066
*1003 FILLER_0_2073
*1004 FILLER_0_2080
*1005 FILLER_0_2087
*1006 FILLER_0_2094
*1007 FILLER_0_2098
*1008 FILLER_0_21
*1009 FILLER_0_210
*1010 FILLER_0_2103
*1011 FILLER_0_2110
*1012 FILLER_0_2117
*1013 FILLER_0_2124
*1014 FILLER_0_2131
*1015 FILLER_0_2138
*1016 FILLER_0_2145
*1017 FILLER_0_2155
*1018 FILLER_0_2162
*1019 FILLER_0_2169
*1020 FILLER_0_217
*1021 FILLER_0_2171
*1022 FILLER_0_2175
*1023 FILLER_0_2182
*1024 FILLER_0_2189
*1025 FILLER_0_2196
*1026 FILLER_0_2203
*1027 FILLER_0_2210
*1028 FILLER_0_2214
*1029 FILLER_0_2218
*1030 FILLER_0_2225
*1031 FILLER_0_2232
*1032 FILLER_0_2239
*1033 FILLER_0_224
*1034 FILLER_0_2246
*1035 FILLER_0_2253
*1036 FILLER_0_2260
*1037 FILLER_0_2267
*1038 FILLER_0_2274
*1039 FILLER_0_2281
*1040 FILLER_0_2288
*1041 FILLER_0_2295
*1042 FILLER_0_2302
*1043 FILLER_0_2309
*1044 FILLER_0_231
*1045 FILLER_0_2316
*1046 FILLER_0_2323
*1047 FILLER_0_2330
*1048 FILLER_0_2337
*1049 FILLER_0_2344
*1050 FILLER_0_2351
*1051 FILLER_0_2358
*1052 FILLER_0_2365
*1053 FILLER_0_2372
*1054 FILLER_0_2379
*1055 FILLER_0_238
*1056 FILLER_0_2386
*1057 FILLER_0_2393
*1058 FILLER_0_2400
*1059 FILLER_0_2407
*1060 FILLER_0_2414
*1061 FILLER_0_2421
*1062 FILLER_0_2428
*1063 FILLER_0_2435
*1064 FILLER_0_2442
*1065 FILLER_0_2449
*1066 FILLER_0_245
*1067 FILLER_0_2456
*1068 FILLER_0_2463
*1069 FILLER_0_2470
*1070 FILLER_0_2477
*1071 FILLER_0_2484
*1072 FILLER_0_2491
*1073 FILLER_0_2498
*1074 FILLER_0_2505
*1075 FILLER_0_2512
*1076 FILLER_0_2519
*1077 FILLER_0_252
*1078 FILLER_0_2526
*1079 FILLER_0_2533
*1080 FILLER_0_2540
*1081 FILLER_0_2547
*1082 FILLER_0_2554
*1083 FILLER_0_2561
*1084 FILLER_0_2568
*1085 FILLER_0_2575
*1086 FILLER_0_2582
*1087 FILLER_0_2589
*1088 FILLER_0_259
*1089 FILLER_0_2596
*1090 FILLER_0_2603
*1091 FILLER_0_2610
*1092 FILLER_0_2617
*1093 FILLER_0_2624
*1094 FILLER_0_2631
*1095 FILLER_0_2638
*1096 FILLER_0_2645
*1097 FILLER_0_2652
*1098 FILLER_0_2659
*1099 FILLER_0_266
*1100 FILLER_0_2666
*1101 FILLER_0_2673
*1102 FILLER_0_2680
*1103 FILLER_0_2687
*1104 FILLER_0_2694
*1105 FILLER_0_2698
*1106 FILLER_0_273
*1107 FILLER_0_28
*1108 FILLER_0_281
*1109 FILLER_0_288
*1110 FILLER_0_295
*1111 FILLER_0_302
*1112 FILLER_0_309
*1113 FILLER_0_316
*1114 FILLER_0_323
*1115 FILLER_0_330
*1116 FILLER_0_337
*1117 FILLER_0_344
*1118 FILLER_0_35
*1119 FILLER_0_351
*1120 FILLER_0_358
*1121 FILLER_0_365
*1122 FILLER_0_372
*1123 FILLER_0_379
*1124 FILLER_0_386
*1125 FILLER_0_393
*1126 FILLER_0_400
*1127 FILLER_0_407
*1128 FILLER_0_414
*1129 FILLER_0_42
*1130 FILLER_0_421
*1131 FILLER_0_428
*1132 FILLER_0_435
*1133 FILLER_0_442
*1134 FILLER_0_449
*1135 FILLER_0_456
*1136 FILLER_0_463
*1137 FILLER_0_470
*1138 FILLER_0_477
*1139 FILLER_0_484
*1140 FILLER_0_49
*1141 FILLER_0_491
*1142 FILLER_0_498
*1143 FILLER_0_505
*1144 FILLER_0_512
*1145 FILLER_0_519
*1146 FILLER_0_523
*1147 FILLER_0_528
*1148 FILLER_0_535
*1149 FILLER_0_542
*1150 FILLER_0_549
*1151 FILLER_0_556
*1152 FILLER_0_56
*1153 FILLER_0_563
*1154 FILLER_0_570
*1155 FILLER_0_577
*1156 FILLER_0_584
*1157 FILLER_0_591
*1158 FILLER_0_598
*1159 FILLER_0_605
*1160 FILLER_0_612
*1161 FILLER_0_619
*1162 FILLER_0_626
*1163 FILLER_0_63
*1164 FILLER_0_633
*1165 FILLER_0_640
*1166 FILLER_0_647
*1167 FILLER_0_654
*1168 FILLER_0_661
*1169 FILLER_0_668
*1170 FILLER_0_675
*1171 FILLER_0_682
*1172 FILLER_0_689
*1173 FILLER_0_696
*1174 FILLER_0_7
*1175 FILLER_0_70
*1176 FILLER_0_703
*1177 FILLER_0_710
*1178 FILLER_0_717
*1179 FILLER_0_724
*1180 FILLER_0_731
*1181 FILLER_0_738
*1182 FILLER_0_745
*1183 FILLER_0_752
*1184 FILLER_0_759
*1185 FILLER_0_766
*1186 FILLER_0_77
*1187 FILLER_0_773
*1188 FILLER_0_780
*1189 FILLER_0_787
*1190 FILLER_0_794
*1191 FILLER_0_801
*1192 FILLER_0_808
*1193 FILLER_0_815
*1194 FILLER_0_822
*1195 FILLER_0_829