*SPEF "ieee 1481-1999"
*DESIGN "tt_um_chip_rom"
*DATE "05:15:10 Sunday December 07, 2025"
*VENDOR "The OpenROAD Project"
*PROGRAM "OpenROAD"
*VERSION "341650e72dad0dc8571822ff8c5d9c5e365327f7"
*DESIGN_FLOW "NAME_SCOPE LOCAL" "PIN_CAP NONE"
*DIVIDER /
*DELIMITER :
*BUS_DELIMITER []
*T_UNIT 1 NS
*C_UNIT 1 PF
*R_UNIT 1 OHM
*L_UNIT 1 HENRY

*NAME_MAP
*3 clk
*4 ena
*5 rst_n
*6 ui_in[0]
*7 ui_in[1]
*8 ui_in[2]
*9 ui_in[3]
*10 ui_in[4]
*11 ui_in[5]
*12 ui_in[6]
*13 ui_in[7]
*14 uio_in[0]
*15 uio_in[1]
*16 uio_in[2]
*17 uio_in[3]
*18 uio_in[4]
*19 uio_in[5]
*20 uio_in[6]
*21 uio_in[7]
*22 net17
*23 net18
*24 net19
*25 net20
*26 net21
*27 net22
*28 net23
*29 net24
*30 net25
*31 net26
*32 net27
*33 net28
*34 net29
*35 net30
*36 net31
*37 net32
*38 uo_out[0]
*39 uo_out[1]
*40 uo_out[2]
*41 uo_out[3]
*42 uo_out[4]
*43 uo_out[5]
*44 uo_out[6]
*45 uo_out[7]
*46 _000_
*47 _001_
*48 _002_
*49 _003_
*50 _004_
*51 _005_
*52 _006_
*53 _007_
*54 _008_
*55 _009_
*56 _010_
*57 _011_
*58 _012_
*59 _013_
*60 _014_
*61 _015_
*62 _016_
*63 _017_
*64 _018_
*65 _019_
*66 _020_
*67 _021_
*68 _022_
*69 _023_
*70 _024_
*71 _025_
*72 _026_
*73 _027_
*74 _028_
*75 _029_
*76 _030_
*77 _031_
*78 _032_
*79 _033_
*80 _034_
*81 _035_
*82 _036_
*83 _037_
*84 _038_
*85 _039_
*86 _040_
*87 _041_
*88 _042_
*89 _043_
*90 _044_
*91 _045_
*92 _046_
*93 _047_
*94 _048_
*95 _049_
*96 _050_
*97 _051_
*98 _052_
*99 _053_
*100 _054_
*101 _055_
*102 _056_
*103 _057_
*104 _058_
*105 _059_
*106 _060_
*107 _061_
*108 _062_
*109 _063_
*110 _064_
*111 _065_
*112 _066_
*113 _067_
*114 _068_
*115 _069_
*116 _070_
*117 _071_
*118 _072_
*119 _073_
*120 _074_
*121 _075_
*122 _076_
*123 _077_
*124 _078_
*125 _079_
*126 _080_
*127 _081_
*128 _082_
*129 _083_
*130 _084_
*131 _085_
*132 _086_
*133 _087_
*134 _088_
*135 _089_
*136 _090_
*137 _091_
*138 _092_
*139 _093_
*140 _094_
*141 _095_
*142 _096_
*143 _097_
*144 _098_
*145 _099_
*146 _100_
*147 _101_
*148 _102_
*149 _103_
*150 _104_
*151 _105_
*152 _106_
*153 _107_
*154 _108_
*155 _109_
*156 _110_
*157 _111_
*158 _112_
*159 _113_
*160 _114_
*161 _115_
*162 _116_
*163 _117_
*164 _118_
*165 _119_
*166 _120_
*167 _121_
*168 _122_
*169 _123_
*170 _124_
*171 _125_
*172 _126_
*173 _127_
*174 _128_
*175 _129_
*176 _130_
*177 _131_
*178 _132_
*179 _133_
*180 _134_
*181 _135_
*182 _136_
*183 _137_
*184 _138_
*185 _139_
*186 _140_
*187 _141_
*188 _142_
*189 _143_
*190 _144_
*191 _145_
*192 _146_
*193 _147_
*194 _148_
*195 _149_
*196 _150_
*197 _151_
*198 _152_
*199 _153_
*200 _154_
*201 _155_
*202 _156_
*203 _157_
*204 _158_
*205 _159_
*206 _160_
*207 _161_
*208 _162_
*209 _163_
*210 _164_
*211 _165_
*212 _166_
*213 _167_
*214 _168_
*215 _169_
*216 _170_
*217 _171_
*218 _172_
*219 _173_
*220 _174_
*221 _175_
*222 _176_
*223 _177_
*224 _178_
*225 _179_
*226 _180_
*227 _181_
*228 _182_
*229 _183_
*230 _184_
*231 _185_
*232 _186_
*233 _187_
*234 _188_
*235 _189_
*236 _190_
*237 _191_
*238 _192_
*239 addr_counter\[0\]
*240 addr_counter\[1\]
*241 addr_counter\[2\]
*242 addr_counter\[3\]
*243 addr_counter\[4\]
*244 addr_counter\[5\]
*245 addr_counter\[6\]
*246 addr_counter\[7\]
*247 clknet_0_clk
*248 clknet_1_0__leaf_clk
*249 clknet_1_1__leaf_clk
*250 net1
*251 net10
*252 net11
*253 net12
*254 net13
*255 net14
*256 net15
*257 net16
*258 net2
*259 net3
*260 net33
*261 net34
*262 net35
*263 net36
*264 net37
*265 net38
*266 net39
*267 net4
*268 net40
*269 net41
*270 net42
*271 net43
*272 net44
*273 net45
*274 net46
*275 net47
*276 net48
*277 net49
*278 net5
*279 net50
*280 net51
*281 net52
*282 net53
*283 net54
*284 net55
*285 net56
*286 net57
*287 net58
*288 net59
*289 net6
*290 net60
*291 net61
*292 net62
*293 net63
*294 net64
*295 net7
*296 net8
*297 net9
*298 FILLER_0_0
*299 FILLER_0_105
*300 FILLER_0_112
*301 FILLER_0_119
*302 FILLER_0_126
*303 FILLER_0_133
*304 FILLER_0_14
*305 FILLER_0_140
*306 FILLER_0_147
*307 FILLER_0_154
*308 FILLER_0_161
*309 FILLER_0_168
*310 FILLER_0_175
*311 FILLER_0_182
*312 FILLER_0_189
*313 FILLER_0_196
*314 FILLER_0_203
*315 FILLER_0_21
*316 FILLER_0_210
*317 FILLER_0_217
*318 FILLER_0_224
*319 FILLER_0_231
*320 FILLER_0_238
*321 FILLER_0_245
*322 FILLER_0_252
*323 FILLER_0_259
*324 FILLER_0_266
*325 FILLER_0_273
*326 FILLER_0_28
*327 FILLER_0_280
*328 FILLER_0_287
*329 FILLER_0_294
*330 FILLER_0_301
*331 FILLER_0_308
*332 FILLER_0_315
*333 FILLER_0_322
*334 FILLER_0_329
*335 FILLER_0_336
*336 FILLER_0_343
*337 FILLER_0_35
*338 FILLER_0_350
*339 FILLER_0_357
*340 FILLER_0_364
*341 FILLER_0_371
*342 FILLER_0_378
*343 FILLER_0_385
*344 FILLER_0_392
*345 FILLER_0_399
*346 FILLER_0_406
*347 FILLER_0_408
*348 FILLER_0_42
*349 FILLER_0_49
*350 FILLER_0_56
*351 FILLER_0_63
*352 FILLER_0_7
*353 FILLER_0_70
*354 FILLER_0_77
*355 FILLER_0_84
*356 FILLER_0_91
*357 FILLER_0_98
*358 FILLER_10_0
*359 FILLER_10_105
*360 FILLER_10_112
*361 FILLER_10_119
*362 FILLER_10_126
*363 FILLER_10_133
*364 FILLER_10_14
*365 FILLER_10_140
*366 FILLER_10_147
*367 FILLER_10_154
*368 FILLER_10_161
*369 FILLER_10_168
*370 FILLER_10_175
*371 FILLER_10_182
*372 FILLER_10_189
*373 FILLER_10_196
*374 FILLER_10_203
*375 FILLER_10_21
*376 FILLER_10_210
*377 FILLER_10_217
*378 FILLER_10_224
*379 FILLER_10_231
*380 FILLER_10_238
*381 FILLER_10_245
*382 FILLER_10_252
*383 FILLER_10_259
*384 FILLER_10_266
*385 FILLER_10_273
*386 FILLER_10_28
*387 FILLER_10_280
*388 FILLER_10_287
*389 FILLER_10_294
*390 FILLER_10_301
*391 FILLER_10_308
*392 FILLER_10_315
*393 FILLER_10_322
*394 FILLER_10_329
*395 FILLER_10_336
*396 FILLER_10_343
*397 FILLER_10_35
*398 FILLER_10_350
*399 FILLER_10_357
*400 FILLER_10_364
*401 FILLER_10_371
*402 FILLER_10_378
*403 FILLER_10_385
*404 FILLER_10_392
*405 FILLER_10_399
*406 FILLER_10_406
*407 FILLER_10_408
*408 FILLER_10_42
*409 FILLER_10_49
*410 FILLER_10_56
*411 FILLER_10_63
*412 FILLER_10_7
*413 FILLER_10_70
*414 FILLER_10_77
*415 FILLER_10_84
*416 FILLER_10_91
*417 FILLER_10_98
*418 FILLER_11_0
*419 FILLER_11_105
*420 FILLER_11_112
*421 FILLER_11_119
*422 FILLER_11_126
*423 FILLER_11_133
*424 FILLER_11_14
*425 FILLER_11_140
*426 FILLER_11_147
*427 FILLER_11_154
*428 FILLER_11_161
*429 FILLER_11_168
*430 FILLER_11_175
*431 FILLER_11_182
*432 FILLER_11_189
*433 FILLER_11_196
*434 FILLER_11_203
*435 FILLER_11_21
*436 FILLER_11_210
*437 FILLER_11_217
*438 FILLER_11_224
*439 FILLER_11_231
*440 FILLER_11_238
*441 FILLER_11_245
*442 FILLER_11_252
*443 FILLER_11_259
*444 FILLER_11_266
*445 FILLER_11_273
*446 FILLER_11_28
*447 FILLER_11_280
*448 FILLER_11_287
*449 FILLER_11_294
*450 FILLER_11_301
*451 FILLER_11_308
*452 FILLER_11_315
*453 FILLER_11_322
*454 FILLER_11_329
*455 FILLER_11_336
*456 FILLER_11_343
*457 FILLER_11_35
*458 FILLER_11_350
*459 FILLER_11_357
*460 FILLER_11_364
*461 FILLER_11_371
*462 FILLER_11_378
*463 FILLER_11_385
*464 FILLER_11_392
*465 FILLER_11_399
*466 FILLER_11_406
*467 FILLER_11_408
*468 FILLER_11_42
*469 FILLER_11_49
*470 FILLER_11_56
*471 FILLER_11_63
*472 FILLER_11_7
*473 FILLER_11_70
*474 FILLER_11_77
*475 FILLER_11_84
*476 FILLER_11_91
*477 FILLER_11_98
*478 FILLER_12_0
*479 FILLER_12_105
*480 FILLER_12_112
*481 FILLER_12_119
*482 FILLER_12_126
*483 FILLER_12_133
*484 FILLER_12_14
*485 FILLER_12_140
*486 FILLER_12_147
*487 FILLER_12_154
*488 FILLER_12_161
*489 FILLER_12_168
*490 FILLER_12_175
*491 FILLER_12_182
*492 FILLER_12_189
*493 FILLER_12_196
*494 FILLER_12_203
*495 FILLER_12_21
*496 FILLER_12_210
*497 FILLER_12_217
*498 FILLER_12_224
*499 FILLER_12_231
*500 FILLER_12_238
*501 FILLER_12_245
*502 FILLER_12_252
*503 FILLER_12_259
*504 FILLER_12_266
*505 FILLER_12_273
*506 FILLER_12_28
*507 FILLER_12_280
*508 FILLER_12_287
*509 FILLER_12_294
*510 FILLER_12_301
*511 FILLER_12_308
*512 FILLER_12_315
*513 FILLER_12_322
*514 FILLER_12_329
*515 FILLER_12_336
*516 FILLER_12_343
*517 FILLER_12_35
*518 FILLER_12_350
*519 FILLER_12_357
*520 FILLER_12_364
*521 FILLER_12_371
*522 FILLER_12_378
*523 FILLER_12_385
*524 FILLER_12_392
*525 FILLER_12_399
*526 FILLER_12_406
*527 FILLER_12_408
*528 FILLER_12_42
*529 FILLER_12_49
*530 FILLER_12_56
*531 FILLER_12_63
*532 FILLER_12_7
*533 FILLER_12_70
*534 FILLER_12_77
*535 FILLER_12_84
*536 FILLER_12_91
*537 FILLER_12_98
*538 FILLER_13_0
*539 FILLER_13_105
*540 FILLER_13_112
*541 FILLER_13_119
*542 FILLER_13_126
*543 FILLER_13_133
*544 FILLER_13_14
*545 FILLER_13_140
*546 FILLER_13_147
*547 FILLER_13_154
*548 FILLER_13_161
*549 FILLER_13_168
*550 FILLER_13_175
*551 FILLER_13_182
*552 FILLER_13_189
*553 FILLER_13_196
*554 FILLER_13_203
*555 FILLER_13_21
*556 FILLER_13_210
*557 FILLER_13_217
*558 FILLER_13_224
*559 FILLER_13_231
*560 FILLER_13_238
*561 FILLER_13_245
*562 FILLER_13_252
*563 FILLER_13_259
*564 FILLER_13_266
*565 FILLER_13_273
*566 FILLER_13_28
*567 FILLER_13_280
*568 FILLER_13_287
*569 FILLER_13_294
*570 FILLER_13_301
*571 FILLER_13_308
*572 FILLER_13_315
*573 FILLER_13_322
*574 FILLER_13_329
*575 FILLER_13_336
*576 FILLER_13_343
*577 FILLER_13_35
*578 FILLER_13_350
*579 FILLER_13_357
*580 FILLER_13_364
*581 FILLER_13_371
*582 FILLER_13_378
*583 FILLER_13_385
*584 FILLER_13_392
*585 FILLER_13_399
*586 FILLER_13_406
*587 FILLER_13_408
*588 FILLER_13_42
*589 FILLER_13_49
*590 FILLER_13_56
*591 FILLER_13_63
*592 FILLER_13_7
*593 FILLER_13_70
*594 FILLER_13_77
*595 FILLER_13_84
*596 FILLER_13_91
*597 FILLER_13_98
*598 FILLER_14_0
*599 FILLER_14_105
*600 FILLER_14_112
*601 FILLER_14_119
*602 FILLER_14_126
*603 FILLER_14_133
*604 FILLER_14_14
*605 FILLER_14_140
*606 FILLER_14_147
*607 FILLER_14_154
*608 FILLER_14_161
*609 FILLER_14_168
*610 FILLER_14_175
*611 FILLER_14_182
*612 FILLER_14_189
*613 FILLER_14_196
*614 FILLER_14_203
*615 FILLER_14_21
*616 FILLER_14_210
*617 FILLER_14_217
*618 FILLER_14_224
*619 FILLER_14_231
*620 FILLER_14_238
*621 FILLER_14_245
*622 FILLER_14_252
*623 FILLER_14_259
*624 FILLER_14_266
*625 FILLER_14_273
*626 FILLER_14_28
*627 FILLER_14_280
*628 FILLER_14_287
*629 FILLER_14_294
*630 FILLER_14_301
*631 FILLER_14_308
*632 FILLER_14_315
*633 FILLER_14_322
*634 FILLER_14_329
*635 FILLER_14_336
*636 FILLER_14_343
*637 FILLER_14_35
*638 FILLER_14_350
*639 FILLER_14_357
*640 FILLER_14_364
*641 FILLER_14_371
*642 FILLER_14_378
*643 FILLER_14_385
*644 FILLER_14_392
*645 FILLER_14_399
*646 FILLER_14_406
*647 FILLER_14_408
*648 FILLER_14_42
*649 FILLER_14_49
*650 FILLER_14_56
*651 FILLER_14_63
*652 FILLER_14_7
*653 FILLER_14_70
*654 FILLER_14_77
*655 FILLER_14_84
*656 FILLER_14_91
*657 FILLER_14_98
*658 FILLER_15_0
*659 FILLER_15_105
*660 FILLER_15_112
*661 FILLER_15_119
*662 FILLER_15_126
*663 FILLER_15_133
*664 FILLER_15_14
*665 FILLER_15_140
*666 FILLER_15_147
*667 FILLER_15_154
*668 FILLER_15_161
*669 FILLER_15_168
*670 FILLER_15_175
*671 FILLER_15_182
*672 FILLER_15_189
*673 FILLER_15_196
*674 FILLER_15_203
*675 FILLER_15_21
*676 FILLER_15_210
*677 FILLER_15_217
*678 FILLER_15_224
*679 FILLER_15_231
*680 FILLER_15_238
*681 FILLER_15_245
*682 FILLER_15_252
*683 FILLER_15_259
*684 FILLER_15_266
*685 FILLER_15_273
*686 FILLER_15_28
*687 FILLER_15_280
*688 FILLER_15_287
*689 FILLER_15_294
*690 FILLER_15_301
*691 FILLER_15_308
*692 FILLER_15_315
*693 FILLER_15_322
*694 FILLER_15_329
*695 FILLER_15_336
*696 FILLER_15_343
*697 FILLER_15_35
*698 FILLER_15_350
*699 FILLER_15_357
*700 FILLER_15_364
*701 FILLER_15_371
*702 FILLER_15_378
*703 FILLER_15_385
*704 FILLER_15_392
*705 FILLER_15_399
*706 FILLER_15_406
*707 FILLER_15_408
*708 FILLER_15_42
*709 FILLER_15_49
*710 FILLER_15_56
*711 FILLER_15_63
*712 FILLER_15_7
*713 FILLER_15_70
*714 FILLER_15_77
*715 FILLER_15_84
*716 FILLER_15_91
*717 FILLER_15_98
*718 FILLER_16_0
*719 FILLER_16_105
*720 FILLER_16_112
*721 FILLER_16_119
*722 FILLER_16_126
*723 FILLER_16_133
*724 FILLER_16_14
*725 FILLER_16_140
*726 FILLER_16_147
*727 FILLER_16_154
*728 FILLER_16_161
*729 FILLER_16_168
*730 FILLER_16_175
*731 FILLER_16_182
*732 FILLER_16_189
*733 FILLER_16_196
*734 FILLER_16_203
*735 FILLER_16_21
*736 FILLER_16_210
*737 FILLER_16_217
*738 FILLER_16_224
*739 FILLER_16_231
*740 FILLER_16_238
*741 FILLER_16_245
*742 FILLER_16_252
*743 FILLER_16_259
*744 FILLER_16_266
*745 FILLER_16_273
*746 FILLER_16_28
*747 FILLER_16_280
*748 FILLER_16_287
*749 FILLER_16_294
*750 FILLER_16_301
*751 FILLER_16_308
*752 FILLER_16_315
*753 FILLER_16_322
*754 FILLER_16_329
*755 FILLER_16_336
*756 FILLER_16_343
*757 FILLER_16_35
*758 FILLER_16_350
*759 FILLER_16_357
*760 FILLER_16_364
*761 FILLER_16_371
*762 FILLER_16_378
*763 FILLER_16_385
*764 FILLER_16_392
*765 FILLER_16_399
*766 FILLER_16_406
*767 FILLER_16_408
*768 FILLER_16_42
*769 FILLER_16_49
*770 FILLER_16_56
*771 FILLER_16_63
*772 FILLER_16_7
*773 FILLER_16_70
*774 FILLER_16_77
*775 FILLER_16_84
*776 FILLER_16_91
*777 FILLER_16_98
*778 FILLER_17_0
*779 FILLER_17_105
*780 FILLER_17_112
*781 FILLER_17_119
*782 FILLER_17_126
*783 FILLER_17_133
*784 FILLER_17_14
*785 FILLER_17_140
*786 FILLER_17_147
*787 FILLER_17_154
*788 FILLER_17_161
*789 FILLER_17_168
*790 FILLER_17_175
*791 FILLER_17_182
*792 FILLER_17_189
*793 FILLER_17_196
*794 FILLER_17_203
*795 FILLER_17_21
*796 FILLER_17_210
*797 FILLER_17_217
*798 FILLER_17_224
*799 FILLER_17_231
*800 FILLER_17_238
*801 FILLER_17_245
*802 FILLER_17_252
*803 FILLER_17_259
*804 FILLER_17_266
*805 FILLER_17_273
*806 FILLER_17_28
*807 FILLER_17_280
*808 FILLER_17_287
*809 FILLER_17_294
*810 FILLER_17_301
*811 FILLER_17_308
*812 FILLER_17_315
*813 FILLER_17_322
*814 FILLER_17_329
*815 FILLER_17_336
*816 FILLER_17_343
*817 FILLER_17_35
*818 FILLER_17_350
*819 FILLER_17_357
*820 FILLER_17_364
*821 FILLER_17_371
*822 FILLER_17_378
*823 FILLER_17_385
*824 FILLER_17_392
*825 FILLER_17_399
*826 FILLER_17_406
*827 FILLER_17_408
*828 FILLER_17_42
*829 FILLER_17_49
*830 FILLER_17_56
*831 FILLER_17_63
*832 FILLER_17_7
*833 FILLER_17_70
*834 FILLER_17_77
*835 FILLER_17_84
*836 FILLER_17_91
*837 FILLER_17_98
*838 FILLER_18_0
*839 FILLER_18_102
*840 FILLER_18_109
*841 FILLER_18_121
*842 FILLER_18_131
*843 FILLER_18_138
*844 FILLER_18_14
*845 FILLER_18_145
*846 FILLER_18_152
*847 FILLER_18_159
*848 FILLER_18_173
*849 FILLER_18_182
*850 FILLER_18_191
*851 FILLER_18_195
*852 FILLER_18_21
*853 FILLER_18_213
*854 FILLER_18_220
*855 FILLER_18_227
*856 FILLER_18_234
*857 FILLER_18_241
*858 FILLER_18_248
*859 FILLER_18_255
*860 FILLER_18_262
*861 FILLER_18_269
*862 FILLER_18_276
*863 FILLER_18_28
*864 FILLER_18_283
*865 FILLER_18_290
*866 FILLER_18_297
*867 FILLER_18_304
*868 FILLER_18_311
*869 FILLER_18_318
*870 FILLER_18_325
*871 FILLER_18_332
*872 FILLER_18_339
*873 FILLER_18_346
*874 FILLER_18_35
*875 FILLER_18_353
*876 FILLER_18_360
*877 FILLER_18_367
*878 FILLER_18_374
*879 FILLER_18_381
*880 FILLER_18_388
*881 FILLER_18_395
*882 FILLER_18_402
*883 FILLER_18_42
*884 FILLER_18_49
*885 FILLER_18_56
*886 FILLER_18_63
*887 FILLER_18_7
*888 FILLER_18_70
*889 FILLER_18_74
*890 FILLER_18_81
*891 FILLER_18_88
*892 FILLER_18_95
*893 FILLER_19_0
*894 FILLER_19_101
*895 FILLER_19_103
*896 FILLER_19_109
*897 FILLER_19_127
*898 FILLER_19_136
*899 FILLER_19_14
*900 FILLER_19_143
*901 FILLER_19_147
*902 FILLER_19_156
*903 FILLER_19_163
*904 FILLER_19_172
*905 FILLER_19_179
*906 FILLER_19_186
*907 FILLER_19_193
*908 FILLER_19_200
*909 FILLER_19_206
*910 FILLER_19_21
*911 FILLER_19_210
*912 FILLER_19_217
*913 FILLER_19_224
*914 FILLER_19_231
*915 FILLER_19_233
*916 FILLER_19_249
*917 FILLER_19_256
*918 FILLER_19_263
*919 FILLER_19_270
*920 FILLER_19_277
*921 FILLER_19_28
*922 FILLER_19_284
*923 FILLER_19_291
*924 FILLER_19_298
*925 FILLER_19_305
*926 FILLER_19_312
*927 FILLER_19_319
*928 FILLER_19_326
*929 FILLER_19_333
*930 FILLER_19_340
*931 FILLER_19_347
*932 FILLER_19_35
*933 FILLER_19_354
*934 FILLER_19_361
*935 FILLER_19_368
*936 FILLER_19_375
*937 FILLER_19_382
*938 FILLER_19_389
*939 FILLER_19_396
*940 FILLER_19_403
*941 FILLER_19_407
*942 FILLER_19_42
*943 FILLER_19_49
*944 FILLER_19_56
*945 FILLER_19_7
*946 FILLER_19_81
*947 FILLER_19_87
*948 FILLER_19_94
*949 FILLER_1_0
*950 FILLER_1_105
*951 FILLER_1_112
*952 FILLER_1_119
*953 FILLER_1_126
*954 FILLER_1_133
*955 FILLER_1_14
*956 FILLER_1_140
*957 FILLER_1_147
*958 FILLER_1_154
*959 FILLER_1_161
*960 FILLER_1_168
*961 FILLER_1_175
*962 FILLER_1_182
*963 FILLER_1_189
*964 FILLER_1_196
*965 FILLER_1_203
*966 FILLER_1_21
*967 FILLER_1_210
*968 FILLER_1_217
*969 FILLER_1_224
*970 FILLER_1_231
*971 FILLER_1_238
*972 FILLER_1_245
*973 FILLER_1_252
*974 FILLER_1_259
*975 FILLER_1_266
*976 FILLER_1_273
*977 FILLER_1_28
*978 FILLER_1_280
*979 FILLER_1_287
*980 FILLER_1_294
*981 FILLER_1_301
*982 FILLER_1_308
*983 FILLER_1_315
*984 FILLER_1_322
*985 FILLER_1_329
*986 FILLER_1_336
*987 FILLER_1_343
*988 FILLER_1_35
*989 FILLER_1_350
*990 FILLER_1_357
*991 FILLER_1_364
*992 FILLER_1_371
*993 FILLER_1_378
*994 FILLER_1_385
*995 FILLER_1_392
*996 FILLER_1_399
*997 FILLER_1_406
*998 FILLER_1_408
*999 FILLER_1_42
*1000 FILLER_1_49
*1001 FILLER_1_56
*1002 FILLER_1_63
*1003 FILLER_1_7
*1004 FILLER_1_70
*1005 FILLER_1_77
*1006 FILLER_1_84
*1007 FILLER_1_91
*1008 FILLER_1_98
*1009 FILLER_20_0
*1010 FILLER_20_102
*1011 FILLER_20_109
*1012 FILLER_20_113
*1013 FILLER_20_118
*1014 FILLER_20_125
*1015 FILLER_20_132
*1016 FILLER_20_139
*1017 FILLER_20_14
*1018 FILLER_20_146
*1019 FILLER_20_160
*1020 FILLER_20_167
*1021 FILLER_20_174
*1022 FILLER_20_181
*1023 FILLER_20_188
*1024 FILLER_20_197
*1025 FILLER_20_204
*1026 FILLER_20_21
*1027 FILLER_20_211
*1028 FILLER_20_219
*1029 FILLER_20_226
*1030 FILLER_20_233
*1031 FILLER_20_240
*1032 FILLER_20_251
*1033 FILLER_20_258
*1034 FILLER_20_265
*1035 FILLER_20_272
*1036 FILLER_20_28
*1037 FILLER_20_286
*1038 FILLER_20_293
*1039 FILLER_20_300
*1040 FILLER_20_307
*1041 FILLER_20_314
*1042 FILLER_20_321
*1043 FILLER_20_328
*1044 FILLER_20_335
*1045 FILLER_20_342
*1046 FILLER_20_349
*1047 FILLER_20_356
*1048 FILLER_20_363
*1049 FILLER_20_370
*1050 FILLER_20_377
*1051 FILLER_20_384
*1052 FILLER_20_391
*1053 FILLER_20_398
*1054 FILLER_20_405
*1055 FILLER_20_44
*1056 FILLER_20_51
*1057 FILLER_20_62
*1058 FILLER_20_69
*1059 FILLER_20_7
*1060 FILLER_20_71
*1061 FILLER_20_81
*1062 FILLER_20_88
*1063 FILLER_20_95
*1064 FILLER_21_0
*1065 FILLER_21_105
*1066 FILLER_21_112
*1067 FILLER_21_119
*1068 FILLER_21_126
*1069 FILLER_21_133
*1070 FILLER_21_14
*1071 FILLER_21_140
*1072 FILLER_21_147
*1073 FILLER_21_154
*1074 FILLER_21_161
*1075 FILLER_21_165
*1076 FILLER_21_171
*1077 FILLER_21_178
*1078 FILLER_21_185
*1079 FILLER_21_187
*1080 FILLER_21_199
*1081 FILLER_21_206
*1082 FILLER_21_21
*1083 FILLER_21_213
*1084 FILLER_21_220
*1085 FILLER_21_227
*1086 FILLER_21_238
*1087 FILLER_21_245
*1088 FILLER_21_249
*1089 FILLER_21_254
*1090 FILLER_21_261
*1091 FILLER_21_268
*1092 FILLER_21_275
*1093 FILLER_21_279
*1094 FILLER_21_28
*1095 FILLER_21_294
*1096 FILLER_21_301
*1097 FILLER_21_308
*1098 FILLER_21_315
*1099 FILLER_21_322
*1100 FILLER_21_329
*1101 FILLER_21_336
*1102 FILLER_21_343
*1103 FILLER_21_35
*1104 FILLER_21_350
*1105 FILLER_21_357
*1106 FILLER_21_364
*1107 FILLER_21_371
*1108 FILLER_21_378
*1109 FILLER_21_385
*1110 FILLER_21_392
*1111 FILLER_21_399
*1112 FILLER_21_406
*1113 FILLER_21_408
*1114 FILLER_21_42
*1115 FILLER_21_49
*1116 FILLER_21_56
*1117 FILLER_21_63
*1118 FILLER_21_7
*1119 FILLER_21_70
*1120 FILLER_21_77
*1121 FILLER_21_84
*1122 FILLER_21_91
*1123 FILLER_21_98
*1124 FILLER_22_0
*1125 FILLER_22_100
*1126 FILLER_22_107
*1127 FILLER_22_114
*1128 FILLER_22_121
*1129 FILLER_22_128
*1130 FILLER_22_14
*1131 FILLER_22_140
*1132 FILLER_22_147
*1133 FILLER_22_154
*1134 FILLER_22_162
*1135 FILLER_22_169
*1136 FILLER_22_176
*1137 FILLER_22_180
*1138 FILLER_22_188
*1139 FILLER_22_195
*1140 FILLER_22_202
*1141 FILLER_22_209
*1142 FILLER_22_21
*1143 FILLER_22_216
*1144 FILLER_22_223
*1145 FILLER_22_225
*1146 FILLER_22_231
*1147 FILLER_22_237
*1148 FILLER_22_249
*1149 FILLER_22_253
*1150 FILLER_22_258
*1151 FILLER_22_265
*1152 FILLER_22_272
*1153 FILLER_22_279
*1154 FILLER_22_28
*1155 FILLER_22_286
*1156 FILLER_22_293
*1157 FILLER_22_300
*1158 FILLER_22_307
*1159 FILLER_22_314
*1160 FILLER_22_321
*1161 FILLER_22_328
*1162 FILLER_22_335
*1163 FILLER_22_342
*1164 FILLER_22_349
*1165 FILLER_22_35
*1166 FILLER_22_356
*1167 FILLER_22_363
*1168 FILLER_22_370
*1169 FILLER_22_377
*1170 FILLER_22_384
*1171 FILLER_22_391
*1172 FILLER_22_398
*1173 FILLER_22_405
*1174 FILLER_22_42
*1175 FILLER_22_49
*1176 FILLER_22_56
*1177 FILLER_22_63
*1178 FILLER_22_7
*1179 FILLER_22_70
*1180 FILLER_22_77
*1181 FILLER_22_86
*1182 FILLER_22_93
*1183 FILLER_23_0
*1184 FILLER_23_108
*1185 FILLER_23_115
*1186 FILLER_23_122
*1187 FILLER_23_129
*1188 FILLER_23_139
*1189 FILLER_23_14
*1190 FILLER_23_146
*1191 FILLER_23_153
*1192 FILLER_23_160
*1193 FILLER_23_167
*1194 FILLER_23_174
*1195 FILLER_23_18
*1196 FILLER_23_181
*1197 FILLER_23_188
*1198 FILLER_23_195
*1199 FILLER_23_202
*1200 FILLER_23_211
*1201 FILLER_23_218
*1202 FILLER_23_225
*1203 FILLER_23_232
*1204 FILLER_23_239
*1205 FILLER_23_246
*1206 FILLER_23_253
*1207 FILLER_23_260
*1208 FILLER_23_267
*1209 FILLER_23_274
*1210 FILLER_23_28
*1211 FILLER_23_281
*1212 FILLER_23_288
*1213 FILLER_23_300
*1214 FILLER_23_307
*1215 FILLER_23_314
*1216 FILLER_23_321
*1217 FILLER_23_325
*1218 FILLER_23_35
*1219 FILLER_23_355
*1220 FILLER_23_362
*1221 FILLER_23_369
*1222 FILLER_23_37
*1223 FILLER_23_371
*1224 FILLER_23_384
*1225 FILLER_23_394
*1226 FILLER_23_401
*1227 FILLER_23_408
*1228 FILLER_23_43
*1229 FILLER_23_53
*1230 FILLER_23_60
*1231 FILLER_23_67
*1232 FILLER_23_7
*1233 FILLER_23_74
*1234 FILLER_23_81
*1235 FILLER_23_88
*1236 FILLER_23_95
*1237 FILLER_23_99
*1238 FILLER_24_0
*1239 FILLER_24_101
*1240 FILLER_24_108
*1241 FILLER_24_115
*1242 FILLER_24_122
*1243 FILLER_24_129
*1244 FILLER_24_136
*1245 FILLER_24_14
*1246 FILLER_24_140
*1247 FILLER_24_147
*1248 FILLER_24_154
*1249 FILLER_24_165
*1250 FILLER_24_169
*1251 FILLER_24_175
*1252 FILLER_24_182
*1253 FILLER_24_189
*1254 FILLER_24_196
*1255 FILLER_24_200
*1256 FILLER_24_21
*1257 FILLER_24_217
*1258 FILLER_24_224
*1259 FILLER_24_226
*1260 FILLER_24_231
*1261 FILLER_24_238
*1262 FILLER_24_240
*1263 FILLER_24_246
*1264 FILLER_24_253
*1265 FILLER_24_260
*1266 FILLER_24_267
*1267 FILLER_24_28
*1268 FILLER_24_281
*1269 FILLER_24_304
*1270 FILLER_24_311
*1271 FILLER_24_318
*1272 FILLER_24_32
*1273 FILLER_24_325
*1274 FILLER_24_335
*1275 FILLER_24_342
*1276 FILLER_24_351
*1277 FILLER_24_358
*1278 FILLER_24_365
*1279 FILLER_24_403
*1280 FILLER_24_407
*1281 FILLER_24_46
*1282 FILLER_24_53
*1283 FILLER_24_60
*1284 FILLER_24_7
*1285 FILLER_24_77
*1286 FILLER_24_84
*1287 FILLER_24_88
*1288 FILLER_24_94
*1289 FILLER_25_0
*1290 FILLER_25_102
*1291 FILLER_25_109
*1292 FILLER_25_116
*1293 FILLER_25_123
*1294 FILLER_25_130
*1295 FILLER_25_137
*1296 FILLER_25_14
*1297 FILLER_25_144
*1298 FILLER_25_154
*1299 FILLER_25_160
*1300 FILLER_25_167
*1301 FILLER_25_176
*1302 FILLER_25_183
*1303 FILLER_25_190
*1304 FILLER_25_197
*1305 FILLER_25_204
*1306 FILLER_25_21
*1307 FILLER_25_212
*1308 FILLER_25_219
*1309 FILLER_25_226
*1310 FILLER_25_233
*1311 FILLER_25_240
*1312 FILLER_25_247
*1313 FILLER_25_254
*1314 FILLER_25_26
*1315 FILLER_25_261
*1316 FILLER_25_268
*1317 FILLER_25_275
*1318 FILLER_25_282
*1319 FILLER_25_289
*1320 FILLER_25_293
*1321 FILLER_25_302
*1322 FILLER_25_309
*1323 FILLER_25_316
*1324 FILLER_25_323
*1325 FILLER_25_33
*1326 FILLER_25_330
*1327 FILLER_25_346
*1328 FILLER_25_357
*1329 FILLER_25_364
*1330 FILLER_25_371
*1331 FILLER_25_378
*1332 FILLER_25_385
*1333 FILLER_25_392
*1334 FILLER_25_399
*1335 FILLER_25_40
*1336 FILLER_25_406
*1337 FILLER_25_408
*1338 FILLER_25_47
*1339 FILLER_25_54
*1340 FILLER_25_61
*1341 FILLER_25_68
*1342 FILLER_25_7
*1343 FILLER_25_75
*1344 FILLER_25_82
*1345 FILLER_25_89
*1346 FILLER_25_91
*1347 FILLER_26_0
*1348 FILLER_26_105
*1349 FILLER_26_112
*1350 FILLER_26_116
*1351 FILLER_26_128
*1352 FILLER_26_135
*1353 FILLER_26_14
*1354 FILLER_26_142
*1355 FILLER_26_149
*1356 FILLER_26_156
*1357 FILLER_26_158
*1358 FILLER_26_163
*1359 FILLER_26_170
*1360 FILLER_26_174
*1361 FILLER_26_180
*1362 FILLER_26_187
*1363 FILLER_26_194
*1364 FILLER_26_201
*1365 FILLER_26_206
*1366 FILLER_26_213
*1367 FILLER_26_220
*1368 FILLER_26_227
*1369 FILLER_26_23
*1370 FILLER_26_237
*1371 FILLER_26_244
*1372 FILLER_26_251
*1373 FILLER_26_258
*1374 FILLER_26_265
*1375 FILLER_26_272
*1376 FILLER_26_279
*1377 FILLER_26_286
*1378 FILLER_26_290
*1379 FILLER_26_296
*1380 FILLER_26_30
*1381 FILLER_26_303
*1382 FILLER_26_310
*1383 FILLER_26_317
*1384 FILLER_26_324
*1385 FILLER_26_331
*1386 FILLER_26_338
*1387 FILLER_26_345
*1388 FILLER_26_352
*1389 FILLER_26_359
*1390 FILLER_26_366
*1391 FILLER_26_373
*1392 FILLER_26_380
*1393 FILLER_26_387
*1394 FILLER_26_394
*1395 FILLER_26_401
*1396 FILLER_26_408
*1397 FILLER_26_41
*1398 FILLER_26_48
*1399 FILLER_26_55
*1400 FILLER_26_62
*1401 FILLER_26_69
*1402 FILLER_26_7
*1403 FILLER_26_76
*1404 FILLER_26_83
*1405 FILLER_26_91
*1406 FILLER_26_98
*1407 FILLER_27_0
*1408 FILLER_27_105
*1409 FILLER_27_112
*1410 FILLER_27_119
*1411 FILLER_27_126
*1412 FILLER_27_133
*1413 FILLER_27_14
*1414 FILLER_27_140
*1415 FILLER_27_147
*1416 FILLER_27_154
*1417 FILLER_27_161
*1418 FILLER_27_168
*1419 FILLER_27_177
*1420 FILLER_27_184
*1421 FILLER_27_191
*1422 FILLER_27_198
*1423 FILLER_27_205
*1424 FILLER_27_212
*1425 FILLER_27_219
*1426 FILLER_27_226
*1427 FILLER_27_233
*1428 FILLER_27_247
*1429 FILLER_27_260
*1430 FILLER_27_267
*1431 FILLER_27_274
*1432 FILLER_27_281
*1433 FILLER_27_288
*1434 FILLER_27_29
*1435 FILLER_27_295
*1436 FILLER_27_302
*1437 FILLER_27_309
*1438 FILLER_27_316
*1439 FILLER_27_323
*1440 FILLER_27_330
*1441 FILLER_27_337
*1442 FILLER_27_344
*1443 FILLER_27_351
*1444 FILLER_27_36
*1445 FILLER_27_366
*1446 FILLER_27_373
*1447 FILLER_27_389
*1448 FILLER_27_396
*1449 FILLER_27_403
*1450 FILLER_27_407
*1451 FILLER_27_43
*1452 FILLER_27_57
*1453 FILLER_27_64
*1454 FILLER_27_7
*1455 FILLER_27_71
*1456 FILLER_27_81
*1457 FILLER_27_88
*1458 FILLER_27_95
*1459 FILLER_27_99
*1460 FILLER_28_0
*1461 FILLER_28_100
*1462 FILLER_28_105
*1463 FILLER_28_117
*1464 FILLER_28_124
*1465 FILLER_28_131
*1466 FILLER_28_138
*1467 FILLER_28_14
*1468 FILLER_28_145
*1469 FILLER_28_152
*1470 FILLER_28_159
*1471 FILLER_28_171
*1472 FILLER_28_176
*1473 FILLER_28_183
*1474 FILLER_28_190
*1475 FILLER_28_197
*1476 FILLER_28_204
*1477 FILLER_28_21
*1478 FILLER_28_211
*1479 FILLER_28_218
*1480 FILLER_28_222
*1481 FILLER_28_229
*1482 FILLER_28_236
*1483 FILLER_28_238
*1484 FILLER_28_246
*1485 FILLER_28_253
*1486 FILLER_28_260
*1487 FILLER_28_267
*1488 FILLER_28_274
*1489 FILLER_28_28
*1490 FILLER_28_281
*1491 FILLER_28_306
*1492 FILLER_28_313
*1493 FILLER_28_320
*1494 FILLER_28_327
*1495 FILLER_28_337
*1496 FILLER_28_344
*1497 FILLER_28_35
*1498 FILLER_28_351
*1499 FILLER_28_358
*1500 FILLER_28_362
*1501 FILLER_28_400
*1502 FILLER_28_407
*1503 FILLER_28_42
*1504 FILLER_28_51
*1505 FILLER_28_58
*1506 FILLER_28_65
*1507 FILLER_28_7
*1508 FILLER_28_72
*1509 FILLER_28_79
*1510 FILLER_28_86
*1511 FILLER_28_93
*1512 FILLER_29_0
*1513 FILLER_29_105
*1514 FILLER_29_112
*1515 FILLER_29_119
*1516 FILLER_29_126
*1517 FILLER_29_133
*1518 FILLER_29_14
*1519 FILLER_29_140
*1520 FILLER_29_147
*1521 FILLER_29_154
*1522 FILLER_29_158
*1523 FILLER_29_170
*1524 FILLER_29_184
*1525 FILLER_29_191
*1526 FILLER_29_198
*1527 FILLER_29_205
*1528 FILLER_29_21
*1529 FILLER_29_210
*1530 FILLER_29_217
*1531 FILLER_29_224
*1532 FILLER_29_231
*1533 FILLER_29_244
*1534 FILLER_29_251
*1535 FILLER_29_258
*1536 FILLER_29_265
*1537 FILLER_29_272
*1538 FILLER_29_279
*1539 FILLER_29_28
*1540 FILLER_29_286
*1541 FILLER_29_301
*1542 FILLER_29_308
*1543 FILLER_29_315
*1544 FILLER_29_322
*1545 FILLER_29_338
*1546 FILLER_29_35
*1547 FILLER_29_354
*1548 FILLER_29_369
*1549 FILLER_29_376
*1550 FILLER_29_383
*1551 FILLER_29_390
*1552 FILLER_29_397
*1553 FILLER_29_404
*1554 FILLER_29_408
*1555 FILLER_29_42
*1556 FILLER_29_49
*1557 FILLER_29_56
*1558 FILLER_29_63
*1559 FILLER_29_7
*1560 FILLER_29_70
*1561 FILLER_29_77
*1562 FILLER_29_84
*1563 FILLER_29_91
*1564 FILLER_29_98
*1565 FILLER_2_0
*1566 FILLER_2_105
*1567 FILLER_2_112
*1568 FILLER_2_119
*1569 FILLER_2_126
*1570 FILLER_2_133
*1571 FILLER_2_14
*1572 FILLER_2_140
*1573 FILLER_2_147
*1574 FILLER_2_154
*1575 FILLER_2_161
*1576 FILLER_2_168
*1577 FILLER_2_175
*1578 FILLER_2_182
*1579 FILLER_2_189
*1580 FILLER_2_196
*1581 FILLER_2_203
*1582 FILLER_2_21
*1583 FILLER_2_210
*1584 FILLER_2_217
*1585 FILLER_2_224
*1586 FILLER_2_231
*1587 FILLER_2_238
*1588 FILLER_2_245
*1589 FILLER_2_252
*1590 FILLER_2_259
*1591 FILLER_2_266
*1592 FILLER_2_273
*1593 FILLER_2_28
*1594 FILLER_2_280
*1595 FILLER_2_287
*1596 FILLER_2_294
*1597 FILLER_2_301
*1598 FILLER_2_308
*1599 FILLER_2_315
*1600 FILLER_2_322
*1601 FILLER_2_329
*1602 FILLER_2_336
*1603 FILLER_2_343
*1604 FILLER_2_35
*1605 FILLER_2_350
*1606 FILLER_2_357
*1607 FILLER_2_364
*1608 FILLER_2_371
*1609 FILLER_2_378
*1610 FILLER_2_385
*1611 FILLER_2_392
*1612 FILLER_2_399
*1613 FILLER_2_406
*1614 FILLER_2_408
*1615 FILLER_2_42
*1616 FILLER_2_49
*1617 FILLER_2_56
*1618 FILLER_2_63
*1619 FILLER_2_7
*1620 FILLER_2_70
*1621 FILLER_2_77
*1622 FILLER_2_84
*1623 FILLER_2_91
*1624 FILLER_2_98
*1625 FILLER_30_0
*1626 FILLER_30_100
*1627 FILLER_30_113
*1628 FILLER_30_128
*1629 FILLER_30_135
*1630 FILLER_30_14
*1631 FILLER_30_142
*1632 FILLER_30_149
*1633 FILLER_30_156
*1634 FILLER_30_163
*1635 FILLER_30_170
*1636 FILLER_30_182
*1637 FILLER_30_189
*1638 FILLER_30_193
*1639 FILLER_30_200
*1640 FILLER_30_207
*1641 FILLER_30_21
*1642 FILLER_30_214
*1643 FILLER_30_224
*1644 FILLER_30_235
*1645 FILLER_30_242
*1646 FILLER_30_249
*1647 FILLER_30_25
*1648 FILLER_30_256
*1649 FILLER_30_263
*1650 FILLER_30_270
*1651 FILLER_30_277
*1652 FILLER_30_284
*1653 FILLER_30_286
*1654 FILLER_30_292
*1655 FILLER_30_299
*1656 FILLER_30_306
*1657 FILLER_30_313
*1658 FILLER_30_320
*1659 FILLER_30_355
*1660 FILLER_30_362
*1661 FILLER_30_369
*1662 FILLER_30_376
*1663 FILLER_30_383
*1664 FILLER_30_39
*1665 FILLER_30_390
*1666 FILLER_30_397
*1667 FILLER_30_404
*1668 FILLER_30_408
*1669 FILLER_30_43
*1670 FILLER_30_49
*1671 FILLER_30_56
*1672 FILLER_30_63
*1673 FILLER_30_7
*1674 FILLER_30_82
*1675 FILLER_30_93
*1676 FILLER_31_0